/*---------------------------------------------------------------------------*\
  =========                 |
  \\      /  F ield         | OpenFOAM: The Open Source CFD Toolbox
   \\    /   O peration     | Website:  https://openfoam.org
    \\  /    A nd           | Version:  6
     \\/     M anipulation  |
\*---------------------------------------------------------------------------*/
Build  : 6-47517f2ebb1b
Exec   : icoFoam
Date   : Dec 08 2021
Time   : 13:41:13
Host   : "sh-System-Product-Name"
PID    : 10218
I/O    : uncollated
Case   : /home/sh/OpenFOAM/sh-6/run/flat_plate_lowvis
nProcs : 1
sigFpe : Enabling floating point exception trapping (FOAM_SIGFPE).
fileModificationChecking : Monitoring run-time modified files using timeStampMaster (fileModificationSkew 10)
allowSystemOperations : Allowing user-supplied system call operations

// * * * * * * * * * * * * * * * * * * * * * * * * * * * * * * * * * * * * * //
Create time

Create mesh for time = 0

Reading transportProperties

Reading field p

Reading field U

Reading/calculating face flux field phi


Starting time loop

Time = 0.00025

Courant Number mean: 0.05 max: 0.139886
smoothSolver:  Solving for Ux, Initial residual = 1, Final residual = 1.74091e-06, No Iterations 2
smoothSolver:  Solving for Uy, Initial residual = 0, Final residual = 0, No Iterations 0
DICPCG:  Solving for p, Initial residual = 1, Final residual = 0.038898, No Iterations 96
time step continuity errors : sum local = 4.30518e-10, global = -4.18346e-20, cumulative = -4.18346e-20
DICPCG:  Solving for p, Initial residual = 0.00335688, Final residual = 9.72188e-07, No Iterations 108
time step continuity errors : sum local = 3.97691e-13, global = -9.99377e-20, cumulative = -1.41772e-19
ExecutionTime = 0.03 s  ClockTime = 0 s

Time = 0.0005

Courant Number mean: 0.0500001 max: 0.140064
smoothSolver:  Solving for Ux, Initial residual = 0.11915, Final residual = 1.99714e-07, No Iterations 2
smoothSolver:  Solving for Uy, Initial residual = 0.154823, Final residual = 1.33565e-06, No Iterations 2
DICPCG:  Solving for p, Initial residual = 0.00257176, Final residual = 0.000128027, No Iterations 91
time step continuity errors : sum local = 5.12179e-11, global = -2.41093e-19, cumulative = -3.82865e-19
DICPCG:  Solving for p, Initial residual = 0.000224462, Final residual = 9.07823e-07, No Iterations 98
time step continuity errors : sum local = 3.49566e-13, global = 1.15936e-19, cumulative = -2.66929e-19
ExecutionTime = 0.04 s  ClockTime = 0 s

Time = 0.00075

Courant Number mean: 0.0500002 max: 0.140244
smoothSolver:  Solving for Ux, Initial residual = 0.0623026, Final residual = 1.03636e-07, No Iterations 2
smoothSolver:  Solving for Uy, Initial residual = 0.0802334, Final residual = 7.00036e-07, No Iterations 2
DICPCG:  Solving for p, Initial residual = 0.00258185, Final residual = 0.000127134, No Iterations 91
time step continuity errors : sum local = 4.94502e-11, global = 1.70938e-19, cumulative = -9.59909e-20
DICPCG:  Solving for p, Initial residual = 0.000227667, Final residual = 9.93291e-07, No Iterations 98
time step continuity errors : sum local = 3.71891e-13, global = 6.19663e-20, cumulative = -3.40246e-20
ExecutionTime = 0.05 s  ClockTime = 0 s

Time = 0.001

Courant Number mean: 0.0500003 max: 0.140425
smoothSolver:  Solving for Ux, Initial residual = 0.0417692, Final residual = 6.88909e-08, No Iterations 2
smoothSolver:  Solving for Uy, Initial residual = 0.0534556, Final residual = 4.71479e-07, No Iterations 2
DICPCG:  Solving for p, Initial residual = 0.00260497, Final residual = 0.000122864, No Iterations 91
time step continuity errors : sum local = 4.64773e-11, global = -6.93556e-19, cumulative = -7.27581e-19
DICPCG:  Solving for p, Initial residual = 0.000229465, Final residual = 7.4672e-07, No Iterations 99
time step continuity errors : sum local = 2.72474e-13, global = -2.98581e-19, cumulative = -1.02616e-18
ExecutionTime = 0.06 s  ClockTime = 0 s

Time = 0.00125

Courant Number mean: 0.0500004 max: 0.140604
smoothSolver:  Solving for Ux, Initial residual = 0.0312207, Final residual = 5.10701e-08, No Iterations 2
smoothSolver:  Solving for Uy, Initial residual = 0.0397664, Final residual = 3.5435e-07, No Iterations 2
DICPCG:  Solving for p, Initial residual = 0.00263719, Final residual = 0.000116637, No Iterations 91
time step continuity errors : sum local = 4.29595e-11, global = 3.28229e-19, cumulative = -6.97932e-19
DICPCG:  Solving for p, Initial residual = 0.000229555, Final residual = 7.41916e-07, No Iterations 99
time step continuity errors : sum local = 2.6389e-13, global = 2.51425e-19, cumulative = -4.46507e-19
ExecutionTime = 0.07 s  ClockTime = 0 s

Time = 0.0015

Courant Number mean: 0.0500005 max: 0.140781
smoothSolver:  Solving for Ux, Initial residual = 0.0248122, Final residual = 4.02348e-08, No Iterations 2
smoothSolver:  Solving for Uy, Initial residual = 0.0314901, Final residual = 2.83412e-07, No Iterations 2
DICPCG:  Solving for p, Initial residual = 0.00268565, Final residual = 0.000130887, No Iterations 90
time step continuity errors : sum local = 4.69234e-11, global = -5.79048e-19, cumulative = -1.02556e-18
DICPCG:  Solving for p, Initial residual = 0.000250233, Final residual = 9.70731e-07, No Iterations 98
time step continuity errors : sum local = 3.3759e-13, global = -2.3676e-19, cumulative = -1.26232e-18
ExecutionTime = 0.09 s  ClockTime = 0 s

Time = 0.00175

Courant Number mean: 0.0500005 max: 0.140954
smoothSolver:  Solving for Ux, Initial residual = 0.0205192, Final residual = 3.29688e-08, No Iterations 2
smoothSolver:  Solving for Uy, Initial residual = 0.0259788, Final residual = 2.35966e-07, No Iterations 2
DICPCG:  Solving for p, Initial residual = 0.00273283, Final residual = 0.000119108, No Iterations 90
time step continuity errors : sum local = 4.17246e-11, global = -1.72473e-20, cumulative = -1.27956e-18
DICPCG:  Solving for p, Initial residual = 0.000245016, Final residual = 9.44225e-07, No Iterations 98
time step continuity errors : sum local = 3.21835e-13, global = -1.84156e-19, cumulative = -1.46372e-18
ExecutionTime = 0.1 s  ClockTime = 0 s

Time = 0.002

Courant Number mean: 0.0500006 max: 0.141121
smoothSolver:  Solving for Ux, Initial residual = 0.017454, Final residual = 2.77752e-08, No Iterations 2
smoothSolver:  Solving for Uy, Initial residual = 0.0220629, Final residual = 2.02348e-07, No Iterations 2
DICPCG:  Solving for p, Initial residual = 0.00276676, Final residual = 0.00012694, No Iterations 89
time step continuity errors : sum local = 4.3558e-11, global = 2.49373e-19, cumulative = -1.21435e-18
DICPCG:  Solving for p, Initial residual = 0.000257842, Final residual = 9.40839e-07, No Iterations 97
time step continuity errors : sum local = 3.15057e-13, global = -1.70672e-19, cumulative = -1.38502e-18
ExecutionTime = 0.11 s  ClockTime = 0 s

Time = 0.00225

Courant Number mean: 0.0500006 max: 0.141281
smoothSolver:  Solving for Ux, Initial residual = 0.0151653, Final residual = 2.38932e-08, No Iterations 2
smoothSolver:  Solving for Uy, Initial residual = 0.0191724, Final residual = 1.77528e-07, No Iterations 2
DICPCG:  Solving for p, Initial residual = 0.00278627, Final residual = 0.000126476, No Iterations 88
time step continuity errors : sum local = 4.26023e-11, global = -3.66906e-19, cumulative = -1.75192e-18
DICPCG:  Solving for p, Initial residual = 0.000262951, Final residual = 8.12867e-07, No Iterations 97
time step continuity errors : sum local = 2.68839e-13, global = 5.67474e-20, cumulative = -1.69518e-18
ExecutionTime = 0.12 s  ClockTime = 0 s

Time = 0.0025

Courant Number mean: 0.0500006 max: 0.141433
smoothSolver:  Solving for Ux, Initial residual = 0.013399, Final residual = 2.0895e-08, No Iterations 2
smoothSolver:  Solving for Uy, Initial residual = 0.0169747, Final residual = 1.58457e-07, No Iterations 2
DICPCG:  Solving for p, Initial residual = 0.00279714, Final residual = 0.000135053, No Iterations 86
time step continuity errors : sum local = 4.47282e-11, global = 1.84126e-19, cumulative = -1.51105e-18
DICPCG:  Solving for p, Initial residual = 0.00027395, Final residual = 9.88196e-07, No Iterations 96
time step continuity errors : sum local = 3.23421e-13, global = -2.58647e-19, cumulative = -1.7697e-18
ExecutionTime = 0.13 s  ClockTime = 0 s

Time = 0.00275

Courant Number mean: 0.0500007 max: 0.141575
smoothSolver:  Solving for Ux, Initial residual = 0.0120013, Final residual = 9.78982e-06, No Iterations 1
smoothSolver:  Solving for Uy, Initial residual = 0.0152572, Final residual = 1.43566e-07, No Iterations 2
DICPCG:  Solving for p, Initial residual = 0.00280877, Final residual = 0.000122773, No Iterations 85
time step continuity errors : sum local = 4.02039e-11, global = -3.26844e-19, cumulative = -2.09654e-18
DICPCG:  Solving for p, Initial residual = 0.000273889, Final residual = 8.7485e-07, No Iterations 96
time step continuity errors : sum local = 2.84228e-13, global = -4.46181e-19, cumulative = -2.54272e-18
ExecutionTime = 0.14 s  ClockTime = 0 s

Time = 0.003

Courant Number mean: 0.0500007 max: 0.141707
smoothSolver:  Solving for Ux, Initial residual = 0.010874, Final residual = 8.83008e-06, No Iterations 1
smoothSolver:  Solving for Uy, Initial residual = 0.0138972, Final residual = 1.31666e-07, No Iterations 2
DICPCG:  Solving for p, Initial residual = 0.00280218, Final residual = 0.000136418, No Iterations 82
time step continuity errors : sum local = 4.45922e-11, global = -2.88085e-20, cumulative = -2.57153e-18
DICPCG:  Solving for p, Initial residual = 0.00028707, Final residual = 9.7561e-07, No Iterations 97
time step continuity errors : sum local = 3.15233e-13, global = 7.15798e-19, cumulative = -1.85573e-18
ExecutionTime = 0.15 s  ClockTime = 0 s

Time = 0.00325

Courant Number mean: 0.0500007 max: 0.141827
smoothSolver:  Solving for Ux, Initial residual = 0.00995031, Final residual = 8.04485e-06, No Iterations 1
smoothSolver:  Solving for Uy, Initial residual = 0.0127993, Final residual = 1.21942e-07, No Iterations 2
DICPCG:  Solving for p, Initial residual = 0.00283981, Final residual = 0.000135784, No Iterations 37
time step continuity errors : sum local = 4.9289e-11, global = 1.7545e-19, cumulative = -1.68028e-18
DICPCG:  Solving for p, Initial residual = 0.000286981, Final residual = 6.83303e-07, No Iterations 91
time step continuity errors : sum local = 2.21216e-13, global = 3.7559e-21, cumulative = -1.67653e-18
ExecutionTime = 0.16 s  ClockTime = 0 s

Time = 0.0035

Courant Number mean: 0.0500007 max: 0.141935
smoothSolver:  Solving for Ux, Initial residual = 0.00918329, Final residual = 7.39216e-06, No Iterations 1
smoothSolver:  Solving for Uy, Initial residual = 0.0119002, Final residual = 1.13862e-07, No Iterations 2
DICPCG:  Solving for p, Initial residual = 0.00286205, Final residual = 0.000114271, No Iterations 4
time step continuity errors : sum local = 3.70028e-11, global = 3.26923e-20, cumulative = -1.64384e-18
DICPCG:  Solving for p, Initial residual = 0.000232769, Final residual = 7.68284e-07, No Iterations 100
time step continuity errors : sum local = 2.49e-13, global = 2.03175e-19, cumulative = -1.44066e-18
ExecutionTime = 0.17 s  ClockTime = 0 s

Time = 0.00375

Courant Number mean: 0.0500007 max: 0.142031
smoothSolver:  Solving for Ux, Initial residual = 0.00853913, Final residual = 6.84323e-06, No Iterations 1
smoothSolver:  Solving for Uy, Initial residual = 0.0111535, Final residual = 1.07096e-07, No Iterations 2
DICPCG:  Solving for p, Initial residual = 0.00286681, Final residual = 0.000131212, No Iterations 39
time step continuity errors : sum local = 5.0423e-11, global = -3.48746e-19, cumulative = -1.78941e-18
DICPCG:  Solving for p, Initial residual = 0.000285715, Final residual = 8.5267e-07, No Iterations 95
time step continuity errors : sum local = 2.77907e-13, global = -1.10246e-19, cumulative = -1.89965e-18
ExecutionTime = 0.18 s  ClockTime = 0 s

Time = 0.004

Courant Number mean: 0.0500007 max: 0.142113
smoothSolver:  Solving for Ux, Initial residual = 0.00799289, Final residual = 6.37916e-06, No Iterations 1
smoothSolver:  Solving for Uy, Initial residual = 0.0105284, Final residual = 1.014e-07, No Iterations 2
DICPCG:  Solving for p, Initial residual = 0.00292891, Final residual = 0.000130463, No Iterations 85
time step continuity errors : sum local = 4.28104e-11, global = -5.80165e-19, cumulative = -2.47982e-18
DICPCG:  Solving for p, Initial residual = 0.000280307, Final residual = 9.40837e-07, No Iterations 96
time step continuity errors : sum local = 3.11374e-13, global = -3.74853e-19, cumulative = -2.85467e-18
ExecutionTime = 0.19 s  ClockTime = 0 s

Time = 0.00425

Courant Number mean: 0.0500008 max: 0.142181
smoothSolver:  Solving for Ux, Initial residual = 0.00752612, Final residual = 5.98478e-06, No Iterations 1
smoothSolver:  Solving for Uy, Initial residual = 0.0100059, Final residual = 9.65179e-08, No Iterations 2
DICPCG:  Solving for p, Initial residual = 0.00299529, Final residual = 0.000136474, No Iterations 86
time step continuity errors : sum local = 4.52015e-11, global = -9.64819e-20, cumulative = -2.95115e-18
DICPCG:  Solving for p, Initial residual = 0.000282531, Final residual = 9.32109e-07, No Iterations 96
time step continuity errors : sum local = 3.13727e-13, global = 5.23626e-20, cumulative = -2.89879e-18
ExecutionTime = 0.2 s  ClockTime = 0 s

Time = 0.0045

Courant Number mean: 0.0500008 max: 0.142235
smoothSolver:  Solving for Ux, Initial residual = 0.00712448, Final residual = 5.64364e-06, No Iterations 1
smoothSolver:  Solving for Uy, Initial residual = 0.0095648, Final residual = 9.23148e-08, No Iterations 2
DICPCG:  Solving for p, Initial residual = 0.00304398, Final residual = 0.000133601, No Iterations 87
time step continuity errors : sum local = 4.50383e-11, global = -1.03817e-19, cumulative = -3.00261e-18
DICPCG:  Solving for p, Initial residual = 0.000279505, Final residual = 8.08687e-07, No Iterations 96
time step continuity errors : sum local = 2.76314e-13, global = -3.25044e-19, cumulative = -3.32765e-18
ExecutionTime = 0.21 s  ClockTime = 0 s

Time = 0.00475

Courant Number mean: 0.0500008 max: 0.142276
smoothSolver:  Solving for Ux, Initial residual = 0.00677559, Final residual = 5.34628e-06, No Iterations 1
smoothSolver:  Solving for Uy, Initial residual = 0.00918663, Final residual = 8.86608e-08, No Iterations 2
DICPCG:  Solving for p, Initial residual = 0.00306175, Final residual = 0.000151932, No Iterations 87
time step continuity errors : sum local = 5.21097e-11, global = 2.9078e-19, cumulative = -3.03687e-18
DICPCG:  Solving for p, Initial residual = 0.000292266, Final residual = 9.48365e-07, No Iterations 96
time step continuity errors : sum local = 3.30448e-13, global = 5.26051e-20, cumulative = -2.98427e-18
ExecutionTime = 0.22 s  ClockTime = 0 s

Time = 0.005

Courant Number mean: 0.0500009 max: 0.142303
smoothSolver:  Solving for Ux, Initial residual = 0.0064704, Final residual = 5.0859e-06, No Iterations 1
smoothSolver:  Solving for Uy, Initial residual = 0.00885935, Final residual = 8.54763e-08, No Iterations 2
DICPCG:  Solving for p, Initial residual = 0.00306198, Final residual = 0.000152349, No Iterations 88
time step continuity errors : sum local = 5.33202e-11, global = 3.30867e-19, cumulative = -2.6534e-18
DICPCG:  Solving for p, Initial residual = 0.000284635, Final residual = 7.51629e-07, No Iterations 97
time step continuity errors : sum local = 2.67774e-13, global = 2.73934e-19, cumulative = -2.37946e-18
ExecutionTime = 0.23 s  ClockTime = 0 s

Time = 0.00525

Courant Number mean: 0.050001 max: 0.142317
smoothSolver:  Solving for Ux, Initial residual = 0.00620149, Final residual = 4.85657e-06, No Iterations 1
smoothSolver:  Solving for Uy, Initial residual = 0.00856973, Final residual = 8.26442e-08, No Iterations 2
DICPCG:  Solving for p, Initial residual = 0.00303869, Final residual = 0.000131327, No Iterations 89
time step continuity errors : sum local = 4.6911e-11, global = -6.63855e-20, cumulative = -2.44585e-18
DICPCG:  Solving for p, Initial residual = 0.000261251, Final residual = 7.84743e-07, No Iterations 97
time step continuity errors : sum local = 2.85319e-13, global = -2.65465e-19, cumulative = -2.71131e-18
ExecutionTime = 0.25 s  ClockTime = 0 s

Time = 0.0055

Courant Number mean: 0.050001 max: 0.142317
smoothSolver:  Solving for Ux, Initial residual = 0.00596286, Final residual = 4.65274e-06, No Iterations 1
smoothSolver:  Solving for Uy, Initial residual = 0.00831416, Final residual = 8.00682e-08, No Iterations 2
DICPCG:  Solving for p, Initial residual = 0.00300958, Final residual = 0.000136717, No Iterations 89
time step continuity errors : sum local = 4.98923e-11, global = -4.93121e-19, cumulative = -3.20444e-18
DICPCG:  Solving for p, Initial residual = 0.00026035, Final residual = 8.84143e-07, No Iterations 97
time step continuity errors : sum local = 3.2906e-13, global = -7.65489e-20, cumulative = -3.28098e-18
ExecutionTime = 0.26 s  ClockTime = 0 s

Time = 0.00575

Courant Number mean: 0.0500011 max: 0.142305
smoothSolver:  Solving for Ux, Initial residual = 0.00574956, Final residual = 4.47099e-06, No Iterations 1
smoothSolver:  Solving for Uy, Initial residual = 0.00808107, Final residual = 7.78098e-08, No Iterations 2
DICPCG:  Solving for p, Initial residual = 0.00299166, Final residual = 0.00013963, No Iterations 89
time step continuity errors : sum local = 5.20929e-11, global = 3.5704e-19, cumulative = -2.92394e-18
DICPCG:  Solving for p, Initial residual = 0.000259059, Final residual = 9.34511e-07, No Iterations 97
time step continuity errors : sum local = 3.55892e-13, global = -2.94053e-19, cumulative = -3.218e-18
ExecutionTime = 0.27 s  ClockTime = 0 s

Time = 0.006

Courant Number mean: 0.0500013 max: 0.142281
smoothSolver:  Solving for Ux, Initial residual = 0.0055574, Final residual = 4.30764e-06, No Iterations 1
smoothSolver:  Solving for Uy, Initial residual = 0.00786861, Final residual = 7.57646e-08, No Iterations 2
DICPCG:  Solving for p, Initial residual = 0.00300985, Final residual = 0.000140018, No Iterations 89
time step continuity errors : sum local = 5.34249e-11, global = 1.41012e-19, cumulative = -3.07699e-18
DICPCG:  Solving for p, Initial residual = 0.000257213, Final residual = 9.43657e-07, No Iterations 97
time step continuity errors : sum local = 3.67618e-13, global = -1.61231e-19, cumulative = -3.23822e-18
ExecutionTime = 0.28 s  ClockTime = 0 s

Time = 0.00625

Courant Number mean: 0.0500014 max: 0.142246
smoothSolver:  Solving for Ux, Initial residual = 0.00538285, Final residual = 4.15891e-06, No Iterations 1
smoothSolver:  Solving for Uy, Initial residual = 0.00767375, Final residual = 7.38299e-08, No Iterations 2
DICPCG:  Solving for p, Initial residual = 0.00301133, Final residual = 0.000137942, No Iterations 89
time step continuity errors : sum local = 5.38223e-11, global = -3.96684e-19, cumulative = -3.6349e-18
DICPCG:  Solving for p, Initial residual = 0.000253762, Final residual = 9.28527e-07, No Iterations 97
time step continuity errors : sum local = 3.69758e-13, global = 3.12436e-19, cumulative = -3.32246e-18
ExecutionTime = 0.29 s  ClockTime = 0 s

Time = 0.0065

Courant Number mean: 0.0500015 max: 0.142201
smoothSolver:  Solving for Ux, Initial residual = 0.00522277, Final residual = 4.02296e-06, No Iterations 1
smoothSolver:  Solving for Uy, Initial residual = 0.0074916, Final residual = 7.19676e-08, No Iterations 2
DICPCG:  Solving for p, Initial residual = 0.00299265, Final residual = 0.000133658, No Iterations 89
time step continuity errors : sum local = 5.32988e-11, global = 1.05903e-19, cumulative = -3.21656e-18
DICPCG:  Solving for p, Initial residual = 0.000248138, Final residual = 9.01418e-07, No Iterations 97
time step continuity errors : sum local = 3.666e-13, global = 3.35072e-19, cumulative = -2.88149e-18
ExecutionTime = 0.3 s  ClockTime = 0 s

Time = 0.00675

Courant Number mean: 0.0500017 max: 0.142146
smoothSolver:  Solving for Ux, Initial residual = 0.00507463, Final residual = 3.89893e-06, No Iterations 1
smoothSolver:  Solving for Uy, Initial residual = 0.00731847, Final residual = 7.01478e-08, No Iterations 2
DICPCG:  Solving for p, Initial residual = 0.00295952, Final residual = 0.00012739, No Iterations 89
time step continuity errors : sum local = 5.1884e-11, global = -7.23921e-20, cumulative = -2.95388e-18
DICPCG:  Solving for p, Initial residual = 0.000241071, Final residual = 8.70378e-07, No Iterations 97
time step continuity errors : sum local = 3.6128e-13, global = 1.50643e-19, cumulative = -2.80324e-18
ExecutionTime = 0.32 s  ClockTime = 0 s

Time = 0.007

Courant Number mean: 0.0500018 max: 0.142083
smoothSolver:  Solving for Ux, Initial residual = 0.00493661, Final residual = 3.78411e-06, No Iterations 1
smoothSolver:  Solving for Uy, Initial residual = 0.00715036, Final residual = 6.83681e-08, No Iterations 2
DICPCG:  Solving for p, Initial residual = 0.00295604, Final residual = 0.000119498, No Iterations 89
time step continuity errors : sum local = 4.96695e-11, global = -4.03769e-19, cumulative = -3.20701e-18
DICPCG:  Solving for p, Initial residual = 0.00023358, Final residual = 8.36819e-07, No Iterations 97
time step continuity errors : sum local = 3.54185e-13, global = -2.83685e-19, cumulative = -3.49069e-18
ExecutionTime = 0.33 s  ClockTime = 0 s

Time = 0.00725

Courant Number mean: 0.050002 max: 0.142013
smoothSolver:  Solving for Ux, Initial residual = 0.00480679, Final residual = 3.67515e-06, No Iterations 1
smoothSolver:  Solving for Uy, Initial residual = 0.00698436, Final residual = 6.66211e-08, No Iterations 2
DICPCG:  Solving for p, Initial residual = 0.00294824, Final residual = 0.000141502, No Iterations 88
time step continuity errors : sum local = 5.99612e-11, global = -3.65961e-19, cumulative = -3.85665e-18
DICPCG:  Solving for p, Initial residual = 0.000254282, Final residual = 7.75041e-07, No Iterations 97
time step continuity errors : sum local = 3.34192e-13, global = -3.54163e-19, cumulative = -4.21082e-18
ExecutionTime = 0.34 s  ClockTime = 0 s

Time = 0.0075

Courant Number mean: 0.0500022 max: 0.141937
smoothSolver:  Solving for Ux, Initial residual = 0.00468288, Final residual = 3.57065e-06, No Iterations 1
smoothSolver:  Solving for Uy, Initial residual = 0.00681864, Final residual = 6.49124e-08, No Iterations 2
DICPCG:  Solving for p, Initial residual = 0.00293862, Final residual = 0.000141071, No Iterations 87
time step continuity errors : sum local = 6.0646e-11, global = -3.16676e-21, cumulative = -4.21398e-18
DICPCG:  Solving for p, Initial residual = 0.00025102, Final residual = 9.82193e-07, No Iterations 96
time step continuity errors : sum local = 4.30493e-13, global = -1.66328e-20, cumulative = -4.23062e-18
ExecutionTime = 0.35 s  ClockTime = 0 s

Time = 0.00775

Courant Number mean: 0.0500024 max: 0.141855
smoothSolver:  Solving for Ux, Initial residual = 0.00456371, Final residual = 3.46966e-06, No Iterations 1
smoothSolver:  Solving for Uy, Initial residual = 0.00665249, Final residual = 6.3223e-08, No Iterations 2
DICPCG:  Solving for p, Initial residual = 0.002934, Final residual = 0.000126183, No Iterations 87
time step continuity errors : sum local = 5.51209e-11, global = -2.6677e-19, cumulative = -4.49739e-18
DICPCG:  Solving for p, Initial residual = 0.000237099, Final residual = 9.24324e-07, No Iterations 96
time step continuity errors : sum local = 4.11054e-13, global = 1.18813e-19, cumulative = -4.37857e-18
ExecutionTime = 0.36 s  ClockTime = 0 s

Time = 0.008

Courant Number mean: 0.0500026 max: 0.141771
smoothSolver:  Solving for Ux, Initial residual = 0.00444806, Final residual = 3.3716e-06, No Iterations 1
smoothSolver:  Solving for Uy, Initial residual = 0.0064877, Final residual = 6.15463e-08, No Iterations 2
DICPCG:  Solving for p, Initial residual = 0.00293928, Final residual = 0.000133955, No Iterations 86
time step continuity errors : sum local = 5.93178e-11, global = 1.44507e-19, cumulative = -4.23407e-18
DICPCG:  Solving for p, Initial residual = 0.000242483, Final residual = 7.93445e-07, No Iterations 96
time step continuity errors : sum local = 3.55742e-13, global = 2.14509e-19, cumulative = -4.01956e-18
ExecutionTime = 0.37 s  ClockTime = 0 s

Time = 0.00825

Courant Number mean: 0.0500028 max: 0.141683
smoothSolver:  Solving for Ux, Initial residual = 0.0043353, Final residual = 3.27579e-06, No Iterations 1
smoothSolver:  Solving for Uy, Initial residual = 0.00632216, Final residual = 5.9974e-08, No Iterations 2
DICPCG:  Solving for p, Initial residual = 0.00294729, Final residual = 0.000145818, No Iterations 85
time step continuity errors : sum local = 6.5557e-11, global = 1.4139e-19, cumulative = -3.87817e-18
DICPCG:  Solving for p, Initial residual = 0.000255871, Final residual = 8.01127e-07, No Iterations 94
time step continuity errors : sum local = 3.64447e-13, global = -1.10859e-20, cumulative = -3.88925e-18
ExecutionTime = 0.38 s  ClockTime = 0 s

Time = 0.0085

Courant Number mean: 0.0500031 max: 0.141594
smoothSolver:  Solving for Ux, Initial residual = 0.0042249, Final residual = 3.18267e-06, No Iterations 1
smoothSolver:  Solving for Uy, Initial residual = 0.00615588, Final residual = 5.84144e-08, No Iterations 2
DICPCG:  Solving for p, Initial residual = 0.00296045, Final residual = 0.00014112, No Iterations 84
time step continuity errors : sum local = 6.44266e-11, global = -8.39103e-21, cumulative = -3.89764e-18
DICPCG:  Solving for p, Initial residual = 0.000249619, Final residual = 9.14348e-07, No Iterations 96
time step continuity errors : sum local = 4.19595e-13, global = -7.24111e-19, cumulative = -4.62175e-18
ExecutionTime = 0.4 s  ClockTime = 0 s

Time = 0.00875

Courant Number mean: 0.0500033 max: 0.141506
smoothSolver:  Solving for Ux, Initial residual = 0.00411656, Final residual = 3.0919e-06, No Iterations 1
smoothSolver:  Solving for Uy, Initial residual = 0.00599298, Final residual = 5.68297e-08, No Iterations 2
DICPCG:  Solving for p, Initial residual = 0.0029817, Final residual = 0.000119223, No Iterations 39
time step continuity errors : sum local = 6.49242e-11, global = 1.69007e-19, cumulative = -4.45275e-18
DICPCG:  Solving for p, Initial residual = 0.000235514, Final residual = 9.48458e-07, No Iterations 96
time step continuity errors : sum local = 4.36362e-13, global = -5.32216e-19, cumulative = -4.98496e-18
ExecutionTime = 0.4 s  ClockTime = 0 s

Time = 0.009

Courant Number mean: 0.0500035 max: 0.141418
smoothSolver:  Solving for Ux, Initial residual = 0.00400964, Final residual = 3.00409e-06, No Iterations 1
smoothSolver:  Solving for Uy, Initial residual = 0.00582985, Final residual = 5.52137e-08, No Iterations 2
DICPCG:  Solving for p, Initial residual = 0.00304776, Final residual = 0.000150119, No Iterations 23
time step continuity errors : sum local = 7.19903e-11, global = -4.12326e-19, cumulative = -5.39729e-18
DICPCG:  Solving for p, Initial residual = 0.000255959, Final residual = 7.73492e-07, No Iterations 93
time step continuity errors : sum local = 3.58108e-13, global = -2.24038e-19, cumulative = -5.62133e-18
ExecutionTime = 0.41 s  ClockTime = 0 s

Time = 0.00925

Courant Number mean: 0.0500038 max: 0.141332
smoothSolver:  Solving for Ux, Initial residual = 0.00390417, Final residual = 2.91742e-06, No Iterations 1
smoothSolver:  Solving for Uy, Initial residual = 0.00566377, Final residual = 5.36039e-08, No Iterations 2
DICPCG:  Solving for p, Initial residual = 0.00312636, Final residual = 0.000148496, No Iterations 7
time step continuity errors : sum local = 6.86159e-11, global = -2.21043e-19, cumulative = -5.84237e-18
DICPCG:  Solving for p, Initial residual = 0.000251382, Final residual = 8.64006e-07, No Iterations 94
time step continuity errors : sum local = 4.01936e-13, global = -1.04597e-19, cumulative = -5.94697e-18
ExecutionTime = 0.42 s  ClockTime = 0 s

Time = 0.0095

Courant Number mean: 0.050004 max: 0.141249
smoothSolver:  Solving for Ux, Initial residual = 0.00379964, Final residual = 2.83093e-06, No Iterations 1
smoothSolver:  Solving for Uy, Initial residual = 0.00549473, Final residual = 5.20086e-08, No Iterations 2
DICPCG:  Solving for p, Initial residual = 0.00319477, Final residual = 0.000157476, No Iterations 34
time step continuity errors : sum local = 7.82491e-11, global = -4.19308e-20, cumulative = -5.9889e-18
DICPCG:  Solving for p, Initial residual = 0.000270547, Final residual = 8.11951e-07, No Iterations 94
time step continuity errors : sum local = 3.77071e-13, global = -3.17248e-19, cumulative = -6.30614e-18
ExecutionTime = 0.43 s  ClockTime = 0 s

Time = 0.00975

Courant Number mean: 0.0500042 max: 0.14117
smoothSolver:  Solving for Ux, Initial residual = 0.00369572, Final residual = 2.74496e-06, No Iterations 1
smoothSolver:  Solving for Uy, Initial residual = 0.00532379, Final residual = 5.04307e-08, No Iterations 2
DICPCG:  Solving for p, Initial residual = 0.00326361, Final residual = 0.000143507, No Iterations 42
time step continuity errors : sum local = 7.69582e-11, global = -6.04884e-19, cumulative = -6.91103e-18
DICPCG:  Solving for p, Initial residual = 0.000264366, Final residual = 9.59986e-07, No Iterations 94
time step continuity errors : sum local = 4.49728e-13, global = 2.37778e-19, cumulative = -6.67325e-18
ExecutionTime = 0.44 s  ClockTime = 0 s

Time = 0.01

Courant Number mean: 0.0500045 max: 0.141096
smoothSolver:  Solving for Ux, Initial residual = 0.00359242, Final residual = 2.66007e-06, No Iterations 1
smoothSolver:  Solving for Uy, Initial residual = 0.00515265, Final residual = 4.88261e-08, No Iterations 2
DICPCG:  Solving for p, Initial residual = 0.00334339, Final residual = 0.000163614, No Iterations 45
time step continuity errors : sum local = 9.12141e-11, global = -2.27025e-19, cumulative = -6.90028e-18
DICPCG:  Solving for p, Initial residual = 0.000287919, Final residual = 9.7749e-07, No Iterations 96
time step continuity errors : sum local = 4.5142e-13, global = -2.30204e-19, cumulative = -7.13048e-18
ExecutionTime = 0.44 s  ClockTime = 0 s

Time = 0.01025

Courant Number mean: 0.0500047 max: 0.141028
smoothSolver:  Solving for Ux, Initial residual = 0.00348991, Final residual = 2.57568e-06, No Iterations 1
smoothSolver:  Solving for Uy, Initial residual = 0.00497936, Final residual = 4.72165e-08, No Iterations 2
DICPCG:  Solving for p, Initial residual = 0.00341863, Final residual = 0.000153431, No Iterations 84
time step continuity errors : sum local = 7.06903e-11, global = 2.11827e-19, cumulative = -6.91865e-18
DICPCG:  Solving for p, Initial residual = 0.000289526, Final residual = 9.95455e-07, No Iterations 94
time step continuity errors : sum local = 4.55476e-13, global = 2.60854e-20, cumulative = -6.89257e-18
ExecutionTime = 0.46 s  ClockTime = 0 s

Time = 0.0105

Courant Number mean: 0.0500049 max: 0.140965
smoothSolver:  Solving for Ux, Initial residual = 0.00338817, Final residual = 2.49256e-06, No Iterations 1
smoothSolver:  Solving for Uy, Initial residual = 0.00480471, Final residual = 4.55793e-08, No Iterations 2
DICPCG:  Solving for p, Initial residual = 0.00352416, Final residual = 0.000154498, No Iterations 85
time step continuity errors : sum local = 7.0541e-11, global = 2.17286e-19, cumulative = -6.67528e-18
DICPCG:  Solving for p, Initial residual = 0.000296832, Final residual = 8.52994e-07, No Iterations 93
time step continuity errors : sum local = 3.87463e-13, global = 1.64971e-21, cumulative = -6.67363e-18
ExecutionTime = 0.47 s  ClockTime = 0 s

Time = 0.01075

Courant Number mean: 0.0500052 max: 0.14091
smoothSolver:  Solving for Ux, Initial residual = 0.00328763, Final residual = 2.41012e-06, No Iterations 1
smoothSolver:  Solving for Uy, Initial residual = 0.00462958, Final residual = 4.39451e-08, No Iterations 2
DICPCG:  Solving for p, Initial residual = 0.00362863, Final residual = 0.000176053, No Iterations 85
time step continuity errors : sum local = 7.97521e-11, global = -1.375e-19, cumulative = -6.81113e-18
DICPCG:  Solving for p, Initial residual = 0.000320945, Final residual = 8.69851e-07, No Iterations 93
time step continuity errors : sum local = 3.90141e-13, global = -2.65184e-19, cumulative = -7.07632e-18
ExecutionTime = 0.48 s  ClockTime = 0 s

Time = 0.011

Courant Number mean: 0.0500054 max: 0.140862
smoothSolver:  Solving for Ux, Initial residual = 0.00318824, Final residual = 2.32839e-06, No Iterations 1
smoothSolver:  Solving for Uy, Initial residual = 0.00445411, Final residual = 4.24243e-08, No Iterations 2
DICPCG:  Solving for p, Initial residual = 0.00373946, Final residual = 0.00015451, No Iterations 86
time step continuity errors : sum local = 6.9386e-11, global = 4.89996e-19, cumulative = -6.58632e-18
DICPCG:  Solving for p, Initial residual = 0.000309531, Final residual = 7.35468e-07, No Iterations 93
time step continuity errors : sum local = 3.25864e-13, global = -4.63692e-19, cumulative = -7.05001e-18
ExecutionTime = 0.49 s  ClockTime = 0 s

Time = 0.01125

Courant Number mean: 0.0500056 max: 0.140821
smoothSolver:  Solving for Ux, Initial residual = 0.00309007, Final residual = 2.24764e-06, No Iterations 1
smoothSolver:  Solving for Uy, Initial residual = 0.00428918, Final residual = 4.09565e-08, No Iterations 2
DICPCG:  Solving for p, Initial residual = 0.00385592, Final residual = 0.000171134, No Iterations 86
time step continuity errors : sum local = 7.59513e-11, global = 7.42153e-20, cumulative = -6.9758e-18
DICPCG:  Solving for p, Initial residual = 0.000330947, Final residual = 8.11322e-07, No Iterations 93
time step continuity errors : sum local = 3.55092e-13, global = -4.18644e-19, cumulative = -7.39444e-18
ExecutionTime = 0.5 s  ClockTime = 0 s

Time = 0.0115

Courant Number mean: 0.0500058 max: 0.140789
smoothSolver:  Solving for Ux, Initial residual = 0.00299341, Final residual = 2.16924e-06, No Iterations 1
smoothSolver:  Solving for Uy, Initial residual = 0.00413155, Final residual = 3.95295e-08, No Iterations 2
DICPCG:  Solving for p, Initial residual = 0.0039631, Final residual = 0.000186544, No Iterations 86
time step continuity errors : sum local = 8.16782e-11, global = -1.98002e-19, cumulative = -7.59244e-18
DICPCG:  Solving for p, Initial residual = 0.000350925, Final residual = 9.22039e-07, No Iterations 93
time step continuity errors : sum local = 3.97605e-13, global = 2.35821e-19, cumulative = -7.35662e-18
ExecutionTime = 0.51 s  ClockTime = 0 s

Time = 0.01175

Courant Number mean: 0.050006 max: 0.140764
smoothSolver:  Solving for Ux, Initial residual = 0.00289875, Final residual = 2.09249e-06, No Iterations 1
smoothSolver:  Solving for Uy, Initial residual = 0.00398176, Final residual = 3.8129e-08, No Iterations 2
DICPCG:  Solving for p, Initial residual = 0.00407886, Final residual = 0.000200441, No Iterations 86
time step continuity errors : sum local = 8.64482e-11, global = -2.64821e-19, cumulative = -7.62144e-18
DICPCG:  Solving for p, Initial residual = 0.000369124, Final residual = 9.97002e-07, No Iterations 94
time step continuity errors : sum local = 4.22308e-13, global = -3.48238e-20, cumulative = -7.65627e-18
ExecutionTime = 0.52 s  ClockTime = 0 s

Time = 0.012

Courant Number mean: 0.0500061 max: 0.140747
smoothSolver:  Solving for Ux, Initial residual = 0.00280617, Final residual = 2.01868e-06, No Iterations 1
smoothSolver:  Solving for Uy, Initial residual = 0.00383745, Final residual = 3.67531e-08, No Iterations 2
DICPCG:  Solving for p, Initial residual = 0.0041951, Final residual = 0.000171449, No Iterations 87
time step continuity errors : sum local = 7.29889e-11, global = 2.26724e-19, cumulative = -7.42954e-18
DICPCG:  Solving for p, Initial residual = 0.000345964, Final residual = 9.75728e-07, No Iterations 92
time step continuity errors : sum local = 4.06781e-13, global = 1.74588e-19, cumulative = -7.25495e-18
ExecutionTime = 0.53 s  ClockTime = 0 s

Time = 0.01225

Courant Number mean: 0.0500063 max: 0.140738
smoothSolver:  Solving for Ux, Initial residual = 0.00271627, Final residual = 1.94761e-06, No Iterations 1
smoothSolver:  Solving for Uy, Initial residual = 0.00369647, Final residual = 3.54027e-08, No Iterations 2
DICPCG:  Solving for p, Initial residual = 0.00430199, Final residual = 0.000177261, No Iterations 87
time step continuity errors : sum local = 7.41845e-11, global = -1.37688e-19, cumulative = -7.39264e-18
DICPCG:  Solving for p, Initial residual = 0.000357343, Final residual = 7.52064e-07, No Iterations 93
time step continuity errors : sum local = 3.07737e-13, global = 5.77883e-19, cumulative = -6.81476e-18
ExecutionTime = 0.55 s  ClockTime = 0 s

Time = 0.0125

Courant Number mean: 0.0500065 max: 0.140736
smoothSolver:  Solving for Ux, Initial residual = 0.0026291, Final residual = 1.8782e-06, No Iterations 1
smoothSolver:  Solving for Uy, Initial residual = 0.00355815, Final residual = 9.89969e-06, No Iterations 1
DICPCG:  Solving for p, Initial residual = 0.00442982, Final residual = 0.000181054, No Iterations 87
time step continuity errors : sum local = 7.44194e-11, global = -3.3254e-19, cumulative = -7.1473e-18
DICPCG:  Solving for p, Initial residual = 0.000368777, Final residual = 9.68916e-07, No Iterations 93
time step continuity errors : sum local = 3.9068e-13, global = 3.31846e-19, cumulative = -6.81545e-18
ExecutionTime = 0.56 s  ClockTime = 0 s

Time = 0.01275

Courant Number mean: 0.0500066 max: 0.140741
smoothSolver:  Solving for Ux, Initial residual = 0.00254466, Final residual = 1.81062e-06, No Iterations 1
smoothSolver:  Solving for Uy, Initial residual = 0.0034238, Final residual = 9.54281e-06, No Iterations 1
DICPCG:  Solving for p, Initial residual = 0.0045292, Final residual = 0.000181782, No Iterations 87
time step continuity errors : sum local = 7.33213e-11, global = 1.05317e-19, cumulative = -6.71014e-18
DICPCG:  Solving for p, Initial residual = 0.000375802, Final residual = 9.47955e-07, No Iterations 93
time step continuity errors : sum local = 3.74842e-13, global = -6.7225e-20, cumulative = -6.77736e-18
ExecutionTime = 0.57 s  ClockTime = 0 s

Time = 0.013

Courant Number mean: 0.0500067 max: 0.140753
smoothSolver:  Solving for Ux, Initial residual = 0.00246318, Final residual = 1.74502e-06, No Iterations 1
smoothSolver:  Solving for Uy, Initial residual = 0.00329463, Final residual = 9.20238e-06, No Iterations 1
DICPCG:  Solving for p, Initial residual = 0.00462703, Final residual = 0.000179843, No Iterations 87
time step continuity errors : sum local = 7.11472e-11, global = 7.14745e-20, cumulative = -6.70589e-18
DICPCG:  Solving for p, Initial residual = 0.000379572, Final residual = 9.25822e-07, No Iterations 93
time step continuity errors : sum local = 3.58957e-13, global = -5.37912e-19, cumulative = -7.2438e-18
ExecutionTime = 0.58 s  ClockTime = 0 s

Time = 0.01325

Courant Number mean: 0.0500068 max: 0.140772
smoothSolver:  Solving for Ux, Initial residual = 0.00238489, Final residual = 1.68176e-06, No Iterations 1
smoothSolver:  Solving for Uy, Initial residual = 0.00317244, Final residual = 8.88132e-06, No Iterations 1
DICPCG:  Solving for p, Initial residual = 0.00473529, Final residual = 0.00022887, No Iterations 86
time step continuity errors : sum local = 8.84788e-11, global = -2.89676e-19, cumulative = -7.53347e-18
DICPCG:  Solving for p, Initial residual = 0.000426273, Final residual = 8.69439e-07, No Iterations 94
time step continuity errors : sum local = 3.28426e-13, global = -2.48328e-19, cumulative = -7.7818e-18
ExecutionTime = 0.59 s  ClockTime = 0 s

Time = 0.0135

Courant Number mean: 0.0500069 max: 0.140796
smoothSolver:  Solving for Ux, Initial residual = 0.00231001, Final residual = 1.62141e-06, No Iterations 1
smoothSolver:  Solving for Uy, Initial residual = 0.0030584, Final residual = 8.57115e-06, No Iterations 1
DICPCG:  Solving for p, Initial residual = 0.00483667, Final residual = 0.000222986, No Iterations 86
time step continuity errors : sum local = 8.45262e-11, global = -1.09698e-19, cumulative = -7.8915e-18
DICPCG:  Solving for p, Initial residual = 0.000423808, Final residual = 8.8369e-07, No Iterations 94
time step continuity errors : sum local = 3.27365e-13, global = 9.33377e-20, cumulative = -7.79816e-18
ExecutionTime = 0.6 s  ClockTime = 0 s

Time = 0.01375

Courant Number mean: 0.050007 max: 0.140825
smoothSolver:  Solving for Ux, Initial residual = 0.00223887, Final residual = 1.56442e-06, No Iterations 1
smoothSolver:  Solving for Uy, Initial residual = 0.00294997, Final residual = 8.27145e-06, No Iterations 1
DICPCG:  Solving for p, Initial residual = 0.00492171, Final residual = 0.000214078, No Iterations 86
time step continuity errors : sum local = 7.95932e-11, global = -2.66876e-19, cumulative = -8.06504e-18
DICPCG:  Solving for p, Initial residual = 0.000418255, Final residual = 9.05796e-07, No Iterations 94
time step continuity errors : sum local = 3.29321e-13, global = -5.00386e-19, cumulative = -8.56543e-18
ExecutionTime = 0.61 s  ClockTime = 0 s

Time = 0.014

Courant Number mean: 0.0500071 max: 0.140858
smoothSolver:  Solving for Ux, Initial residual = 0.00217171, Final residual = 1.51135e-06, No Iterations 1
smoothSolver:  Solving for Uy, Initial residual = 0.00284734, Final residual = 8.00001e-06, No Iterations 1
DICPCG:  Solving for p, Initial residual = 0.00499449, Final residual = 0.000202496, No Iterations 86
time step continuity errors : sum local = 7.39195e-11, global = 3.60563e-19, cumulative = -8.20486e-18
DICPCG:  Solving for p, Initial residual = 0.00040903, Final residual = 9.44488e-07, No Iterations 94
time step continuity errors : sum local = 3.37743e-13, global = -6.50866e-20, cumulative = -8.26995e-18
ExecutionTime = 0.62 s  ClockTime = 0 s

Time = 0.01425

Courant Number mean: 0.0500071 max: 0.140895
smoothSolver:  Solving for Ux, Initial residual = 0.00210874, Final residual = 1.46228e-06, No Iterations 1
smoothSolver:  Solving for Uy, Initial residual = 0.00275629, Final residual = 7.75394e-06, No Iterations 1
DICPCG:  Solving for p, Initial residual = 0.00508107, Final residual = 0.000238334, No Iterations 85
time step continuity errors : sum local = 8.54257e-11, global = -1.45117e-19, cumulative = -8.41507e-18
DICPCG:  Solving for p, Initial residual = 0.000443679, Final residual = 9.72847e-07, No Iterations 94
time step continuity errors : sum local = 3.43554e-13, global = -3.26647e-19, cumulative = -8.74171e-18
ExecutionTime = 0.64 s  ClockTime = 0 s

Time = 0.0145

Courant Number mean: 0.0500072 max: 0.140934
smoothSolver:  Solving for Ux, Initial residual = 0.00205011, Final residual = 1.41786e-06, No Iterations 1
smoothSolver:  Solving for Uy, Initial residual = 0.00267459, Final residual = 7.52289e-06, No Iterations 1
DICPCG:  Solving for p, Initial residual = 0.00515518, Final residual = 0.000217578, No Iterations 85
time step continuity errors : sum local = 7.67647e-11, global = -1.35484e-19, cumulative = -8.8772e-18
DICPCG:  Solving for p, Initial residual = 0.000425651, Final residual = 8.71128e-07, No Iterations 95
time step continuity errors : sum local = 3.0396e-13, global = 3.09259e-19, cumulative = -8.56794e-18
ExecutionTime = 0.65 s  ClockTime = 0 s

Time = 0.01475

Courant Number mean: 0.0500072 max: 0.140976
smoothSolver:  Solving for Ux, Initial residual = 0.00199586, Final residual = 1.3761e-06, No Iterations 1
smoothSolver:  Solving for Uy, Initial residual = 0.0025999, Final residual = 7.31654e-06, No Iterations 1
DICPCG:  Solving for p, Initial residual = 0.00521114, Final residual = 0.000225614, No Iterations 84
time step continuity errors : sum local = 7.86595e-11, global = -9.42577e-21, cumulative = -8.57736e-18
DICPCG:  Solving for p, Initial residual = 0.000435478, Final residual = 9.00895e-07, No Iterations 97
time step continuity errors : sum local = 3.09833e-13, global = -2.36723e-20, cumulative = -8.60104e-18
ExecutionTime = 0.66 s  ClockTime = 0 s

Time = 0.015

Courant Number mean: 0.0500072 max: 0.141019
smoothSolver:  Solving for Ux, Initial residual = 0.00194572, Final residual = 1.33705e-06, No Iterations 1
smoothSolver:  Solving for Uy, Initial residual = 0.00253519, Final residual = 7.131e-06, No Iterations 1
DICPCG:  Solving for p, Initial residual = 0.00525896, Final residual = 0.000245564, No Iterations 83
time step continuity errors : sum local = 8.4972e-11, global = -5.39107e-19, cumulative = -9.14014e-18
DICPCG:  Solving for p, Initial residual = 0.000444729, Final residual = 9.87681e-07, No Iterations 94
time step continuity errors : sum local = 3.37736e-13, global = -2.09744e-19, cumulative = -9.34989e-18
ExecutionTime = 0.67 s  ClockTime = 0 s

Time = 0.01525

Courant Number mean: 0.0500072 max: 0.141062
smoothSolver:  Solving for Ux, Initial residual = 0.00189962, Final residual = 1.30071e-06, No Iterations 1
smoothSolver:  Solving for Uy, Initial residual = 0.00247827, Final residual = 6.97234e-06, No Iterations 1
DICPCG:  Solving for p, Initial residual = 0.00531361, Final residual = 0.00019638, No Iterations 83
time step continuity errors : sum local = 6.73489e-11, global = -3.11747e-19, cumulative = -9.66163e-18
DICPCG:  Solving for p, Initial residual = 0.000399839, Final residual = 9.22249e-07, No Iterations 97
time step continuity errors : sum local = 3.12933e-13, global = -2.77898e-19, cumulative = -9.93953e-18
ExecutionTime = 0.68 s  ClockTime = 0 s

Time = 0.0155

Courant Number mean: 0.0500073 max: 0.141105
smoothSolver:  Solving for Ux, Initial residual = 0.00185739, Final residual = 1.26713e-06, No Iterations 1
smoothSolver:  Solving for Uy, Initial residual = 0.00242985, Final residual = 6.8283e-06, No Iterations 1
DICPCG:  Solving for p, Initial residual = 0.00536626, Final residual = 0.000234215, No Iterations 45
time step continuity errors : sum local = 9.27566e-11, global = 2.98055e-19, cumulative = -9.64148e-18
DICPCG:  Solving for p, Initial residual = 0.000432536, Final residual = 9.48389e-07, No Iterations 97
time step continuity errors : sum local = 3.2078e-13, global = -3.48403e-19, cumulative = -9.98988e-18
ExecutionTime = 0.69 s  ClockTime = 0 s

Time = 0.01575

Courant Number mean: 0.0500073 max: 0.141146
smoothSolver:  Solving for Ux, Initial residual = 0.00181903, Final residual = 1.23634e-06, No Iterations 1
smoothSolver:  Solving for Uy, Initial residual = 0.00238742, Final residual = 6.70645e-06, No Iterations 1
DICPCG:  Solving for p, Initial residual = 0.00540399, Final residual = 0.000268636, No Iterations 35
time step continuity errors : sum local = 9.9373e-11, global = -2.96996e-19, cumulative = -1.02869e-17
DICPCG:  Solving for p, Initial residual = 0.000458574, Final residual = 9.92031e-07, No Iterations 94
time step continuity errors : sum local = 3.34462e-13, global = 3.68011e-19, cumulative = -9.91887e-18
ExecutionTime = 0.7 s  ClockTime = 0 s

Time = 0.016

Courant Number mean: 0.0500073 max: 0.141186
smoothSolver:  Solving for Ux, Initial residual = 0.00178439, Final residual = 1.20868e-06, No Iterations 1
smoothSolver:  Solving for Uy, Initial residual = 0.00235333, Final residual = 6.60229e-06, No Iterations 1
DICPCG:  Solving for p, Initial residual = 0.00542255, Final residual = 0.000230754, No Iterations 32
time step continuity errors : sum local = 8.07902e-11, global = -3.63637e-19, cumulative = -1.02825e-17
DICPCG:  Solving for p, Initial residual = 0.000414534, Final residual = 9.88234e-07, No Iterations 95
time step continuity errors : sum local = 3.33846e-13, global = -8.80329e-20, cumulative = -1.03705e-17
ExecutionTime = 0.71 s  ClockTime = 0 s

Time = 0.01625

Courant Number mean: 0.0500073 max: 0.141224
smoothSolver:  Solving for Ux, Initial residual = 0.00175351, Final residual = 1.18376e-06, No Iterations 1
smoothSolver:  Solving for Uy, Initial residual = 0.00232423, Final residual = 6.51148e-06, No Iterations 1
DICPCG:  Solving for p, Initial residual = 0.00540855, Final residual = 0.000239004, No Iterations 7
time step continuity errors : sum local = 8.03481e-11, global = -1.36324e-19, cumulative = -1.05069e-17
DICPCG:  Solving for p, Initial residual = 0.000392033, Final residual = 9.91906e-07, No Iterations 99
time step continuity errors : sum local = 3.35566e-13, global = -5.23068e-20, cumulative = -1.05592e-17
ExecutionTime = 0.71 s  ClockTime = 0 s

Time = 0.0165

Courant Number mean: 0.0500073 max: 0.141258
smoothSolver:  Solving for Ux, Initial residual = 0.00172607, Final residual = 1.16182e-06, No Iterations 1
smoothSolver:  Solving for Uy, Initial residual = 0.00230022, Final residual = 6.43047e-06, No Iterations 1
DICPCG:  Solving for p, Initial residual = 0.00540292, Final residual = 0.000264496, No Iterations 12
time step continuity errors : sum local = 8.93532e-11, global = 6.24858e-20, cumulative = -1.04967e-17
DICPCG:  Solving for p, Initial residual = 0.00043301, Final residual = 9.08978e-07, No Iterations 97
time step continuity errors : sum local = 3.07652e-13, global = 1.55337e-19, cumulative = -1.03413e-17
ExecutionTime = 0.72 s  ClockTime = 0 s

Time = 0.01675

Courant Number mean: 0.0500074 max: 0.141288
smoothSolver:  Solving for Ux, Initial residual = 0.00170194, Final residual = 1.14272e-06, No Iterations 1
smoothSolver:  Solving for Uy, Initial residual = 0.00228043, Final residual = 6.36266e-06, No Iterations 1
DICPCG:  Solving for p, Initial residual = 0.00543148, Final residual = 0.000236848, No Iterations 38
time step continuity errors : sum local = 9.10596e-11, global = 2.26142e-19, cumulative = -1.01152e-17
DICPCG:  Solving for p, Initial residual = 0.000431814, Final residual = 8.30503e-07, No Iterations 98
time step continuity errors : sum local = 2.84103e-13, global = -1.04056e-19, cumulative = -1.02193e-17
ExecutionTime = 0.73 s  ClockTime = 0 s

Time = 0.017

Courant Number mean: 0.0500074 max: 0.141315
smoothSolver:  Solving for Ux, Initial residual = 0.00168101, Final residual = 1.12614e-06, No Iterations 1
smoothSolver:  Solving for Uy, Initial residual = 0.00226582, Final residual = 6.30451e-06, No Iterations 1
DICPCG:  Solving for p, Initial residual = 0.00544298, Final residual = 0.000257261, No Iterations 39
time step continuity errors : sum local = 1.03548e-10, global = -1.0629e-19, cumulative = -1.03255e-17
DICPCG:  Solving for p, Initial residual = 0.000452862, Final residual = 8.01012e-07, No Iterations 97
time step continuity errors : sum local = 2.75222e-13, global = -1.10108e-19, cumulative = -1.04357e-17
ExecutionTime = 0.74 s  ClockTime = 0 s

Time = 0.01725

Courant Number mean: 0.0500074 max: 0.141337
smoothSolver:  Solving for Ux, Initial residual = 0.00166297, Final residual = 1.11206e-06, No Iterations 1
smoothSolver:  Solving for Uy, Initial residual = 0.00225436, Final residual = 6.25604e-06, No Iterations 1
DICPCG:  Solving for p, Initial residual = 0.00544046, Final residual = 0.000259375, No Iterations 42
time step continuity errors : sum local = 1.0943e-10, global = -3.60607e-19, cumulative = -1.07963e-17
DICPCG:  Solving for p, Initial residual = 0.000460575, Final residual = 8.75855e-07, No Iterations 98
time step continuity errors : sum local = 3.04737e-13, global = 2.56623e-20, cumulative = -1.07706e-17
ExecutionTime = 0.75 s  ClockTime = 0 s

Time = 0.0175

Courant Number mean: 0.0500075 max: 0.141353
smoothSolver:  Solving for Ux, Initial residual = 0.00164765, Final residual = 1.10027e-06, No Iterations 1
smoothSolver:  Solving for Uy, Initial residual = 0.00224816, Final residual = 6.22212e-06, No Iterations 1
DICPCG:  Solving for p, Initial residual = 0.00542901, Final residual = 0.000246874, No Iterations 85
time step continuity errors : sum local = 8.67272e-11, global = -2.2637e-19, cumulative = -1.0997e-17
DICPCG:  Solving for p, Initial residual = 0.000439982, Final residual = 8.73695e-07, No Iterations 95
time step continuity errors : sum local = 3.09845e-13, global = -2.45555e-19, cumulative = -1.12425e-17
ExecutionTime = 0.76 s  ClockTime = 0 s

Time = 0.01775

Courant Number mean: 0.0500075 max: 0.141365
smoothSolver:  Solving for Ux, Initial residual = 0.0016348, Final residual = 1.09052e-06, No Iterations 1
smoothSolver:  Solving for Uy, Initial residual = 0.00224722, Final residual = 6.19574e-06, No Iterations 1
DICPCG:  Solving for p, Initial residual = 0.00538965, Final residual = 0.000266225, No Iterations 85
time step continuity errors : sum local = 9.47775e-11, global = -7.31461e-19, cumulative = -1.1974e-17
DICPCG:  Solving for p, Initial residual = 0.000455183, Final residual = 8.95152e-07, No Iterations 96
time step continuity errors : sum local = 3.23223e-13, global = -1.90804e-19, cumulative = -1.21648e-17
ExecutionTime = 0.77 s  ClockTime = 0 s

Time = 0.018

Courant Number mean: 0.0500076 max: 0.141371
smoothSolver:  Solving for Ux, Initial residual = 0.00162402, Final residual = 1.08225e-06, No Iterations 1
smoothSolver:  Solving for Uy, Initial residual = 0.00224911, Final residual = 6.17938e-06, No Iterations 1
DICPCG:  Solving for p, Initial residual = 0.00534431, Final residual = 0.000236046, No Iterations 86
time step continuity errors : sum local = 8.52362e-11, global = -2.05123e-19, cumulative = -1.23699e-17
DICPCG:  Solving for p, Initial residual = 0.000420737, Final residual = 8.19253e-07, No Iterations 96
time step continuity errors : sum local = 3.01926e-13, global = -2.13587e-19, cumulative = -1.25835e-17
ExecutionTime = 0.78 s  ClockTime = 0 s

Time = 0.01825

Courant Number mean: 0.0500076 max: 0.141372
smoothSolver:  Solving for Ux, Initial residual = 0.001615, Final residual = 1.0756e-06, No Iterations 1
smoothSolver:  Solving for Uy, Initial residual = 0.00225552, Final residual = 6.17417e-06, No Iterations 1
DICPCG:  Solving for p, Initial residual = 0.00530636, Final residual = 0.000248276, No Iterations 86
time step continuity errors : sum local = 9.11485e-11, global = -5.51694e-20, cumulative = -1.26387e-17
DICPCG:  Solving for p, Initial residual = 0.000430449, Final residual = 8.62367e-07, No Iterations 85
time step continuity errors : sum local = 3.23172e-13, global = 2.45165e-19, cumulative = -1.23935e-17
ExecutionTime = 0.79 s  ClockTime = 0 s

Time = 0.0185

Courant Number mean: 0.0500077 max: 0.141368
smoothSolver:  Solving for Ux, Initial residual = 0.0016075, Final residual = 1.07044e-06, No Iterations 1
smoothSolver:  Solving for Uy, Initial residual = 0.00226504, Final residual = 6.18218e-06, No Iterations 1
DICPCG:  Solving for p, Initial residual = 0.00529666, Final residual = 0.000257061, No Iterations 86
time step continuity errors : sum local = 9.60114e-11, global = 6.37731e-20, cumulative = -1.23297e-17
DICPCG:  Solving for p, Initial residual = 0.000437726, Final residual = 9.93263e-07, No Iterations 96
time step continuity errors : sum local = 3.80133e-13, global = -1.40891e-19, cumulative = -1.24706e-17
ExecutionTime = 0.8 s  ClockTime = 0 s

Time = 0.01875

Courant Number mean: 0.0500078 max: 0.141358
smoothSolver:  Solving for Ux, Initial residual = 0.00160127, Final residual = 1.06589e-06, No Iterations 1
smoothSolver:  Solving for Uy, Initial residual = 0.00227741, Final residual = 6.1993e-06, No Iterations 1
DICPCG:  Solving for p, Initial residual = 0.00527812, Final residual = 0.000261507, No Iterations 86
time step continuity errors : sum local = 9.94249e-11, global = -1.22324e-19, cumulative = -1.25929e-17
DICPCG:  Solving for p, Initial residual = 0.000441014, Final residual = 8.1134e-07, No Iterations 98
time step continuity errors : sum local = 3.15613e-13, global = 9.75175e-20, cumulative = -1.24954e-17
ExecutionTime = 0.81 s  ClockTime = 0 s

Time = 0.019

Courant Number mean: 0.0500079 max: 0.141343
smoothSolver:  Solving for Ux, Initial residual = 0.00159587, Final residual = 1.06172e-06, No Iterations 1
smoothSolver:  Solving for Uy, Initial residual = 0.00229105, Final residual = 6.22138e-06, No Iterations 1
DICPCG:  Solving for p, Initial residual = 0.00526205, Final residual = 0.000262356, No Iterations 86
time step continuity errors : sum local = 1.01582e-10, global = 3.48691e-19, cumulative = -1.21467e-17
DICPCG:  Solving for p, Initial residual = 0.000441716, Final residual = 8.14836e-07, No Iterations 98
time step continuity errors : sum local = 3.22727e-13, global = -5.81251e-20, cumulative = -1.22049e-17
ExecutionTime = 0.83 s  ClockTime = 0 s

Time = 0.01925

Courant Number mean: 0.050008 max: 0.141323
smoothSolver:  Solving for Ux, Initial residual = 0.001591, Final residual = 1.05786e-06, No Iterations 1
smoothSolver:  Solving for Uy, Initial residual = 0.00230597, Final residual = 6.24943e-06, No Iterations 1
DICPCG:  Solving for p, Initial residual = 0.00523119, Final residual = 0.000259871, No Iterations 86
time step continuity errors : sum local = 1.0248e-10, global = 1.08911e-19, cumulative = -1.2096e-17
DICPCG:  Solving for p, Initial residual = 0.000439641, Final residual = 8.24333e-07, No Iterations 98
time step continuity errors : sum local = 3.32587e-13, global = -1.98949e-19, cumulative = -1.22949e-17
ExecutionTime = 0.84 s  ClockTime = 0 s

Time = 0.0195

Courant Number mean: 0.0500081 max: 0.141299
smoothSolver:  Solving for Ux, Initial residual = 0.00158642, Final residual = 1.05403e-06, No Iterations 1
smoothSolver:  Solving for Uy, Initial residual = 0.00232146, Final residual = 6.27589e-06, No Iterations 1
DICPCG:  Solving for p, Initial residual = 0.00518921, Final residual = 0.000254258, No Iterations 86
time step continuity errors : sum local = 1.02073e-10, global = -5.002e-19, cumulative = -1.27951e-17
DICPCG:  Solving for p, Initial residual = 0.000434508, Final residual = 9.87416e-07, No Iterations 97
time step continuity errors : sum local = 4.05821e-13, global = -3.12913e-19, cumulative = -1.3108e-17
ExecutionTime = 0.85 s  ClockTime = 0 s

Time = 0.01975

Courant Number mean: 0.0500083 max: 0.14127
smoothSolver:  Solving for Ux, Initial residual = 0.00158186, Final residual = 1.05038e-06, No Iterations 1
smoothSolver:  Solving for Uy, Initial residual = 0.00233486, Final residual = 6.29351e-06, No Iterations 1
DICPCG:  Solving for p, Initial residual = 0.00514762, Final residual = 0.000245669, No Iterations 86
time step continuity errors : sum local = 1.00341e-10, global = 1.83738e-19, cumulative = -1.29243e-17
DICPCG:  Solving for p, Initial residual = 0.000426374, Final residual = 8.62948e-07, No Iterations 88
time step continuity errors : sum local = 3.65935e-13, global = -2.09604e-19, cumulative = -1.31339e-17
ExecutionTime = 0.86 s  ClockTime = 0 s

Time = 0.02

Courant Number mean: 0.0500084 max: 0.141238
smoothSolver:  Solving for Ux, Initial residual = 0.0015772, Final residual = 1.04634e-06, No Iterations 1
smoothSolver:  Solving for Uy, Initial residual = 0.00234462, Final residual = 6.30077e-06, No Iterations 1
DICPCG:  Solving for p, Initial residual = 0.00509362, Final residual = 0.000234394, No Iterations 86
time step continuity errors : sum local = 9.73658e-11, global = -5.21894e-19, cumulative = -1.36558e-17
DICPCG:  Solving for p, Initial residual = 0.000416013, Final residual = 9.33979e-07, No Iterations 92
time step continuity errors : sum local = 3.95028e-13, global = -4.75783e-20, cumulative = -1.37034e-17
ExecutionTime = 0.87 s  ClockTime = 0 s

Time = 0.02025

Courant Number mean: 0.0500085 max: 0.141202
smoothSolver:  Solving for Ux, Initial residual = 0.00157207, Final residual = 1.04212e-06, No Iterations 1
smoothSolver:  Solving for Uy, Initial residual = 0.00235044, Final residual = 6.29796e-06, No Iterations 1
DICPCG:  Solving for p, Initial residual = 0.00502141, Final residual = 0.000220848, No Iterations 86
time step continuity errors : sum local = 9.32397e-11, global = -7.46569e-20, cumulative = -1.3778e-17
DICPCG:  Solving for p, Initial residual = 0.000403149, Final residual = 9.67102e-07, No Iterations 92
time step continuity errors : sum local = 4.17436e-13, global = -1.59823e-19, cumulative = -1.39378e-17
ExecutionTime = 0.88 s  ClockTime = 0 s

Time = 0.0205

Courant Number mean: 0.0500087 max: 0.141163
smoothSolver:  Solving for Ux, Initial residual = 0.00156634, Final residual = 1.03724e-06, No Iterations 1
smoothSolver:  Solving for Uy, Initial residual = 0.00235275, Final residual = 6.29083e-06, No Iterations 1
DICPCG:  Solving for p, Initial residual = 0.00494066, Final residual = 0.000205084, No Iterations 86
time step continuity errors : sum local = 8.79384e-11, global = 3.14693e-19, cumulative = -1.36231e-17
DICPCG:  Solving for p, Initial residual = 0.000388279, Final residual = 8.60703e-07, No Iterations 91
time step continuity errors : sum local = 3.76216e-13, global = -1.94381e-19, cumulative = -1.38175e-17
ExecutionTime = 0.89 s  ClockTime = 0 s

Time = 0.02075

Courant Number mean: 0.0500089 max: 0.141123
smoothSolver:  Solving for Ux, Initial residual = 0.00155977, Final residual = 1.03168e-06, No Iterations 1
smoothSolver:  Solving for Uy, Initial residual = 0.00235208, Final residual = 6.27509e-06, No Iterations 1
DICPCG:  Solving for p, Initial residual = 0.00487349, Final residual = 0.000234445, No Iterations 85
time step continuity errors : sum local = 1.02134e-10, global = -2.50673e-19, cumulative = -1.40682e-17
DICPCG:  Solving for p, Initial residual = 0.000411444, Final residual = 9.22897e-07, No Iterations 97
time step continuity errors : sum local = 4.08101e-13, global = -1.06597e-20, cumulative = -1.40789e-17
ExecutionTime = 0.9 s  ClockTime = 1 s

Time = 0.021

Courant Number mean: 0.050009 max: 0.141081
smoothSolver:  Solving for Ux, Initial residual = 0.00155226, Final residual = 1.02556e-06, No Iterations 1
smoothSolver:  Solving for Uy, Initial residual = 0.00234864, Final residual = 6.2533e-06, No Iterations 1
DICPCG:  Solving for p, Initial residual = 0.00481279, Final residual = 0.000214583, No Iterations 85
time step continuity errors : sum local = 9.47608e-11, global = -2.24175e-19, cumulative = -1.4303e-17
DICPCG:  Solving for p, Initial residual = 0.000391778, Final residual = 8.1857e-07, No Iterations 97
time step continuity errors : sum local = 3.65946e-13, global = -1.55754e-19, cumulative = -1.44588e-17
ExecutionTime = 0.91 s  ClockTime = 1 s

Time = 0.02125

Courant Number mean: 0.0500092 max: 0.141037
smoothSolver:  Solving for Ux, Initial residual = 0.00154371, Final residual = 1.01884e-06, No Iterations 1
smoothSolver:  Solving for Uy, Initial residual = 0.00234269, Final residual = 6.22874e-06, No Iterations 1
DICPCG:  Solving for p, Initial residual = 0.00475536, Final residual = 0.000227984, No Iterations 42
time step continuity errors : sum local = 1.23345e-10, global = -1.64703e-19, cumulative = -1.46235e-17
DICPCG:  Solving for p, Initial residual = 0.000398442, Final residual = 9.4301e-07, No Iterations 97
time step continuity errors : sum local = 4.21077e-13, global = 3.00536e-19, cumulative = -1.4323e-17
ExecutionTime = 0.92 s  ClockTime = 1 s

Time = 0.0215

Courant Number mean: 0.0500094 max: 0.140994
smoothSolver:  Solving for Ux, Initial residual = 0.00153398, Final residual = 1.01124e-06, No Iterations 1
smoothSolver:  Solving for Uy, Initial residual = 0.00233386, Final residual = 6.19183e-06, No Iterations 1
DICPCG:  Solving for p, Initial residual = 0.00471848, Final residual = 0.000200269, No Iterations 41
time step continuity errors : sum local = 1.08136e-10, global = -4.4864e-19, cumulative = -1.47716e-17
DICPCG:  Solving for p, Initial residual = 0.000381736, Final residual = 8.42424e-07, No Iterations 94
time step continuity errors : sum local = 3.80158e-13, global = 2.348e-20, cumulative = -1.47481e-17
ExecutionTime = 0.93 s  ClockTime = 1 s

Time = 0.02175

Courant Number mean: 0.0500096 max: 0.140951
smoothSolver:  Solving for Ux, Initial residual = 0.00152303, Final residual = 1.00319e-06, No Iterations 1
smoothSolver:  Solving for Uy, Initial residual = 0.00232084, Final residual = 6.15478e-06, No Iterations 1
DICPCG:  Solving for p, Initial residual = 0.00468563, Final residual = 0.000207772, No Iterations 38
time step continuity errors : sum local = 1.07926e-10, global = -1.2093e-19, cumulative = -1.4869e-17
DICPCG:  Solving for p, Initial residual = 0.000385836, Final residual = 8.48748e-07, No Iterations 97
time step continuity errors : sum local = 3.87732e-13, global = -3.93182e-19, cumulative = -1.52622e-17
ExecutionTime = 0.94 s  ClockTime = 1 s

Time = 0.022

Courant Number mean: 0.0500098 max: 0.140908
smoothSolver:  Solving for Ux, Initial residual = 0.00151083, Final residual = 9.94227e-07, No Iterations 1
smoothSolver:  Solving for Uy, Initial residual = 0.00230745, Final residual = 6.11426e-06, No Iterations 1
DICPCG:  Solving for p, Initial residual = 0.00465755, Final residual = 0.00022733, No Iterations 36
time step continuity errors : sum local = 1.13149e-10, global = -1.04407e-19, cumulative = -1.53666e-17
DICPCG:  Solving for p, Initial residual = 0.000390706, Final residual = 8.15741e-07, No Iterations 97
time step continuity errors : sum local = 3.75329e-13, global = 7.31351e-20, cumulative = -1.52935e-17
ExecutionTime = 0.95 s  ClockTime = 1 s

Time = 0.02225

Courant Number mean: 0.05001 max: 0.140867
smoothSolver:  Solving for Ux, Initial residual = 0.00149719, Final residual = 9.8453e-07, No Iterations 1
smoothSolver:  Solving for Uy, Initial residual = 0.0022908, Final residual = 6.06899e-06, No Iterations 1
DICPCG:  Solving for p, Initial residual = 0.00465262, Final residual = 0.000222581, No Iterations 9
time step continuity errors : sum local = 1.0213e-10, global = -1.27633e-19, cumulative = -1.54211e-17
DICPCG:  Solving for p, Initial residual = 0.000368477, Final residual = 8.79361e-07, No Iterations 98
time step continuity errors : sum local = 4.04609e-13, global = -1.95646e-19, cumulative = -1.56168e-17
ExecutionTime = 0.96 s  ClockTime = 1 s

Time = 0.0225

Courant Number mean: 0.0500102 max: 0.140829
smoothSolver:  Solving for Ux, Initial residual = 0.00148215, Final residual = 9.73771e-07, No Iterations 1
smoothSolver:  Solving for Uy, Initial residual = 0.00227258, Final residual = 6.01407e-06, No Iterations 1
DICPCG:  Solving for p, Initial residual = 0.00468486, Final residual = 0.000215022, No Iterations 7
time step continuity errors : sum local = 9.90088e-11, global = 2.42497e-19, cumulative = -1.53743e-17
DICPCG:  Solving for p, Initial residual = 0.000367695, Final residual = 8.27293e-07, No Iterations 99
time step continuity errors : sum local = 3.83173e-13, global = -1.27573e-20, cumulative = -1.5387e-17
ExecutionTime = 0.96 s  ClockTime = 1 s

Time = 0.02275

Courant Number mean: 0.0500104 max: 0.140792
smoothSolver:  Solving for Ux, Initial residual = 0.00146564, Final residual = 9.61793e-07, No Iterations 1
smoothSolver:  Solving for Uy, Initial residual = 0.00224961, Final residual = 5.95028e-06, No Iterations 1
DICPCG:  Solving for p, Initial residual = 0.00474023, Final residual = 0.000234791, No Iterations 31
time step continuity errors : sum local = 1.11997e-10, global = -3.0521e-19, cumulative = -1.56922e-17
DICPCG:  Solving for p, Initial residual = 0.000409739, Final residual = 8.85617e-07, No Iterations 96
time step continuity errors : sum local = 4.09098e-13, global = 2.07896e-20, cumulative = -1.56715e-17
ExecutionTime = 0.97 s  ClockTime = 1 s

Time = 0.023

Courant Number mean: 0.0500106 max: 0.140759
smoothSolver:  Solving for Ux, Initial residual = 0.00144768, Final residual = 9.48672e-07, No Iterations 1
smoothSolver:  Solving for Uy, Initial residual = 0.00222439, Final residual = 5.88184e-06, No Iterations 1
DICPCG:  Solving for p, Initial residual = 0.0048068, Final residual = 0.00022898, No Iterations 33
time step continuity errors : sum local = 1.14657e-10, global = -1.64695e-19, cumulative = -1.58361e-17
DICPCG:  Solving for p, Initial residual = 0.000412403, Final residual = 8.72875e-07, No Iterations 96
time step continuity errors : sum local = 4.04607e-13, global = 6.94335e-20, cumulative = -1.57667e-17
ExecutionTime = 0.98 s  ClockTime = 1 s

Time = 0.02325

Courant Number mean: 0.0500109 max: 0.140729
smoothSolver:  Solving for Ux, Initial residual = 0.00142836, Final residual = 9.34213e-07, No Iterations 1
smoothSolver:  Solving for Uy, Initial residual = 0.00219615, Final residual = 5.80323e-06, No Iterations 1
DICPCG:  Solving for p, Initial residual = 0.0048769, Final residual = 0.000214288, No Iterations 40
time step continuity errors : sum local = 1.11735e-10, global = -1.04998e-19, cumulative = -1.58717e-17
DICPCG:  Solving for p, Initial residual = 0.000410452, Final residual = 8.66181e-07, No Iterations 93
time step continuity errors : sum local = 4.00935e-13, global = -9.25044e-20, cumulative = -1.59642e-17
ExecutionTime = 0.99 s  ClockTime = 1 s

Time = 0.0235

Courant Number mean: 0.0500111 max: 0.140703
smoothSolver:  Solving for Ux, Initial residual = 0.00140769, Final residual = 9.18582e-07, No Iterations 1
smoothSolver:  Solving for Uy, Initial residual = 0.00216384, Final residual = 5.71367e-06, No Iterations 1
DICPCG:  Solving for p, Initial residual = 0.00495153, Final residual = 0.000245132, No Iterations 45
time step continuity errors : sum local = 1.29926e-10, global = 1.23381e-19, cumulative = -1.58408e-17
DICPCG:  Solving for p, Initial residual = 0.000435821, Final residual = 9.03743e-07, No Iterations 92
time step continuity errors : sum local = 4.15625e-13, global = 1.03072e-19, cumulative = -1.57378e-17
ExecutionTime = 1 s  ClockTime = 1 s

Time = 0.02375

Courant Number mean: 0.0500113 max: 0.140682
smoothSolver:  Solving for Ux, Initial residual = 0.00138576, Final residual = 9.01851e-07, No Iterations 1
smoothSolver:  Solving for Uy, Initial residual = 0.00212765, Final residual = 5.61532e-06, No Iterations 1
DICPCG:  Solving for p, Initial residual = 0.00502537, Final residual = 0.000243591, No Iterations 46
time step continuity errors : sum local = 1.3301e-10, global = -2.95654e-19, cumulative = -1.60334e-17
DICPCG:  Solving for p, Initial residual = 0.000446699, Final residual = 7.32885e-07, No Iterations 96
time step continuity errors : sum local = 3.34458e-13, global = -2.11972e-19, cumulative = -1.62454e-17
ExecutionTime = 1.01 s  ClockTime = 1 s

Time = 0.024

Courant Number mean: 0.0500115 max: 0.140664
smoothSolver:  Solving for Ux, Initial residual = 0.00136268, Final residual = 8.84011e-07, No Iterations 1
smoothSolver:  Solving for Uy, Initial residual = 0.00208853, Final residual = 5.51003e-06, No Iterations 1
DICPCG:  Solving for p, Initial residual = 0.00510886, Final residual = 0.000228227, No Iterations 82
time step continuity errors : sum local = 1.04471e-10, global = -2.51312e-19, cumulative = -1.64967e-17
DICPCG:  Solving for p, Initial residual = 0.000438561, Final residual = 7.75877e-07, No Iterations 98
time step continuity errors : sum local = 3.49788e-13, global = 2.0154e-19, cumulative = -1.62952e-17
ExecutionTime = 1.02 s  ClockTime = 1 s

Time = 0.02425

Courant Number mean: 0.0500117 max: 0.140652
smoothSolver:  Solving for Ux, Initial residual = 0.00133852, Final residual = 8.65646e-07, No Iterations 1
smoothSolver:  Solving for Uy, Initial residual = 0.00204715, Final residual = 5.40016e-06, No Iterations 1
DICPCG:  Solving for p, Initial residual = 0.00520807, Final residual = 0.000220911, No Iterations 83
time step continuity errors : sum local = 9.99093e-11, global = -4.53905e-20, cumulative = -1.63406e-17
DICPCG:  Solving for p, Initial residual = 0.00043933, Final residual = 9.0174e-07, No Iterations 97
time step continuity errors : sum local = 4.03532e-13, global = -2.51277e-19, cumulative = -1.65918e-17
ExecutionTime = 1.03 s  ClockTime = 1 s

Time = 0.0245

Courant Number mean: 0.0500119 max: 0.140644
smoothSolver:  Solving for Ux, Initial residual = 0.00131358, Final residual = 8.46633e-07, No Iterations 1
smoothSolver:  Solving for Uy, Initial residual = 0.00200378, Final residual = 5.2848e-06, No Iterations 1
DICPCG:  Solving for p, Initial residual = 0.00533172, Final residual = 0.000250666, No Iterations 83
time step continuity errors : sum local = 1.12106e-10, global = -3.51112e-19, cumulative = -1.69429e-17
DICPCG:  Solving for p, Initial residual = 0.000471332, Final residual = 9.97033e-07, No Iterations 96
time step continuity errors : sum local = 4.39775e-13, global = -2.82941e-19, cumulative = -1.72259e-17
ExecutionTime = 1.04 s  ClockTime = 1 s

Time = 0.02475

Courant Number mean: 0.0500121 max: 0.14064
smoothSolver:  Solving for Ux, Initial residual = 0.00128797, Final residual = 8.27039e-07, No Iterations 1
smoothSolver:  Solving for Uy, Initial residual = 0.00195866, Final residual = 5.16532e-06, No Iterations 1
DICPCG:  Solving for p, Initial residual = 0.00546873, Final residual = 0.000218283, No Iterations 84
time step continuity errors : sum local = 9.60883e-11, global = -1.45446e-19, cumulative = -1.73713e-17
DICPCG:  Solving for p, Initial residual = 0.000456624, Final residual = 8.42648e-07, No Iterations 97
time step continuity errors : sum local = 3.65619e-13, global = 7.96347e-20, cumulative = -1.72917e-17
ExecutionTime = 1.05 s  ClockTime = 1 s

Time = 0.025

Courant Number mean: 0.0500122 max: 0.140642
smoothSolver:  Solving for Ux, Initial residual = 0.00126182, Final residual = 8.07155e-07, No Iterations 1
smoothSolver:  Solving for Uy, Initial residual = 0.00191254, Final residual = 5.04069e-06, No Iterations 1
DICPCG:  Solving for p, Initial residual = 0.00560509, Final residual = 0.000235941, No Iterations 84
time step continuity errors : sum local = 1.02487e-10, global = -2.07608e-19, cumulative = -1.74993e-17
DICPCG:  Solving for p, Initial residual = 0.000478812, Final residual = 9.4802e-07, No Iterations 97
time step continuity errors : sum local = 4.05792e-13, global = 2.49453e-19, cumulative = -1.72498e-17
ExecutionTime = 1.06 s  ClockTime = 1 s

Time = 0.02525

Courant Number mean: 0.0500124 max: 0.140648
smoothSolver:  Solving for Ux, Initial residual = 0.00123538, Final residual = 7.87197e-07, No Iterations 1
smoothSolver:  Solving for Uy, Initial residual = 0.00186597, Final residual = 4.91359e-06, No Iterations 1
DICPCG:  Solving for p, Initial residual = 0.00574065, Final residual = 0.000250746, No Iterations 84
time step continuity errors : sum local = 1.07402e-10, global = -4.8503e-19, cumulative = -1.77349e-17
DICPCG:  Solving for p, Initial residual = 0.000498061, Final residual = 7.36513e-07, No Iterations 98
time step continuity errors : sum local = 3.10841e-13, global = -1.55709e-19, cumulative = -1.78906e-17
ExecutionTime = 1.08 s  ClockTime = 1 s

Time = 0.0255

Courant Number mean: 0.0500125 max: 0.140658
smoothSolver:  Solving for Ux, Initial residual = 0.0012088, Final residual = 7.67433e-07, No Iterations 1
smoothSolver:  Solving for Uy, Initial residual = 0.00181897, Final residual = 4.78374e-06, No Iterations 1
DICPCG:  Solving for p, Initial residual = 0.00587946, Final residual = 0.000262731, No Iterations 84
time step continuity errors : sum local = 1.10878e-10, global = 1.49311e-19, cumulative = -1.77413e-17
DICPCG:  Solving for p, Initial residual = 0.00051489, Final residual = 7.83246e-07, No Iterations 98
time step continuity errors : sum local = 3.25289e-13, global = -6.34588e-20, cumulative = -1.78047e-17
ExecutionTime = 1.09 s  ClockTime = 1 s

Time = 0.02575

Courant Number mean: 0.0500126 max: 0.140673
smoothSolver:  Solving for Ux, Initial residual = 0.00118228, Final residual = 7.48092e-07, No Iterations 1
smoothSolver:  Solving for Uy, Initial residual = 0.00177194, Final residual = 4.66012e-06, No Iterations 1
DICPCG:  Solving for p, Initial residual = 0.0060189, Final residual = 0.000272258, No Iterations 84
time step continuity errors : sum local = 1.13113e-10, global = -5.9251e-19, cumulative = -1.83972e-17
DICPCG:  Solving for p, Initial residual = 0.000528903, Final residual = 8.19083e-07, No Iterations 98
time step continuity errors : sum local = 3.34504e-13, global = -7.39381e-20, cumulative = -1.84712e-17
ExecutionTime = 1.1 s  ClockTime = 1 s

Time = 0.026

Courant Number mean: 0.0500127 max: 0.140692
smoothSolver:  Solving for Ux, Initial residual = 0.00115605, Final residual = 7.29057e-07, No Iterations 1
smoothSolver:  Solving for Uy, Initial residual = 0.00172852, Final residual = 4.54456e-06, No Iterations 1
DICPCG:  Solving for p, Initial residual = 0.00616945, Final residual = 0.000279357, No Iterations 84
time step continuity errors : sum local = 1.14193e-10, global = -3.26824e-19, cumulative = -1.8798e-17
DICPCG:  Solving for p, Initial residual = 0.000540884, Final residual = 8.4019e-07, No Iterations 98
time step continuity errors : sum local = 3.37236e-13, global = -3.81434e-19, cumulative = -1.91794e-17
ExecutionTime = 1.11 s  ClockTime = 1 s

Time = 0.02625

Courant Number mean: 0.0500128 max: 0.140715
smoothSolver:  Solving for Ux, Initial residual = 0.00113021, Final residual = 7.10675e-07, No Iterations 1
smoothSolver:  Solving for Uy, Initial residual = 0.00168721, Final residual = 4.43364e-06, No Iterations 1
DICPCG:  Solving for p, Initial residual = 0.00633523, Final residual = 0.00028385, No Iterations 84
time step continuity errors : sum local = 1.14116e-10, global = 2.08252e-19, cumulative = -1.89712e-17
DICPCG:  Solving for p, Initial residual = 0.000550098, Final residual = 8.51819e-07, No Iterations 98
time step continuity errors : sum local = 3.36021e-13, global = 6.00007e-20, cumulative = -1.89112e-17
ExecutionTime = 1.12 s  ClockTime = 1 s

Time = 0.0265

Courant Number mean: 0.0500129 max: 0.14074
smoothSolver:  Solving for Ux, Initial residual = 0.00110501, Final residual = 6.92607e-07, No Iterations 1
smoothSolver:  Solving for Uy, Initial residual = 0.00164857, Final residual = 4.32568e-06, No Iterations 1
DICPCG:  Solving for p, Initial residual = 0.00649529, Final residual = 0.000284926, No Iterations 84
time step continuity errors : sum local = 1.1263e-10, global = -2.10271e-19, cumulative = -1.91215e-17
DICPCG:  Solving for p, Initial residual = 0.000556628, Final residual = 8.52721e-07, No Iterations 98
time step continuity errors : sum local = 3.30469e-13, global = -7.50158e-20, cumulative = -1.91965e-17
ExecutionTime = 1.13 s  ClockTime = 1 s

Time = 0.02675

Courant Number mean: 0.050013 max: 0.140769
smoothSolver:  Solving for Ux, Initial residual = 0.0010804, Final residual = 6.74829e-07, No Iterations 1
smoothSolver:  Solving for Uy, Initial residual = 0.00161132, Final residual = 4.22142e-06, No Iterations 1
DICPCG:  Solving for p, Initial residual = 0.00663759, Final residual = 0.000282302, No Iterations 84
time step continuity errors : sum local = 1.09698e-10, global = 3.39806e-19, cumulative = -1.88567e-17
DICPCG:  Solving for p, Initial residual = 0.000560002, Final residual = 8.3387e-07, No Iterations 98
time step continuity errors : sum local = 3.17423e-13, global = -6.77112e-20, cumulative = -1.89244e-17
ExecutionTime = 1.14 s  ClockTime = 1 s

Time = 0.027

Courant Number mean: 0.0500131 max: 0.1408
smoothSolver:  Solving for Ux, Initial residual = 0.00105654, Final residual = 6.57637e-07, No Iterations 1
smoothSolver:  Solving for Uy, Initial residual = 0.00157648, Final residual = 4.12321e-06, No Iterations 1
DICPCG:  Solving for p, Initial residual = 0.00675969, Final residual = 0.000275892, No Iterations 84
time step continuity errors : sum local = 1.05385e-10, global = 4.1804e-20, cumulative = -1.88826e-17
DICPCG:  Solving for p, Initial residual = 0.000559622, Final residual = 7.78469e-07, No Iterations 98
time step continuity errors : sum local = 2.91002e-13, global = 2.89228e-19, cumulative = -1.85933e-17
ExecutionTime = 1.15 s  ClockTime = 1 s

Time = 0.02725

Courant Number mean: 0.0500132 max: 0.140833
smoothSolver:  Solving for Ux, Initial residual = 0.00103359, Final residual = 6.41166e-07, No Iterations 1
smoothSolver:  Solving for Uy, Initial residual = 0.00154351, Final residual = 4.02732e-06, No Iterations 1
DICPCG:  Solving for p, Initial residual = 0.0068674, Final residual = 0.000336663, No Iterations 83
[...]
time step continuity errors : sum local = 4.08944e-12, global = -3.63665e-20, cumulative = -7.12012e-16
ExecutionTime = 27.35 s  ClockTime = 27 s

Time = 0.9935

Courant Number mean: 0.0510742 max: 0.152874
smoothSolver:  Solving for Ux, Initial residual = 0.000136609, Final residual = 1.15627e-07, No Iterations 1
smoothSolver:  Solving for Uy, Initial residual = 0.000367915, Final residual = 2.93709e-07, No Iterations 1
DICPCG:  Solving for p, Initial residual = 0.000500122, Final residual = 2.29984e-05, No Iterations 7
time step continuity errors : sum local = 9.95963e-11, global = 3.42158e-19, cumulative = -7.11669e-16
DICPCG:  Solving for p, Initial residual = 2.89495e-05, Final residual = 9.34573e-07, No Iterations 53
time step continuity errors : sum local = 4.32528e-12, global = -3.46827e-19, cumulative = -7.12016e-16
ExecutionTime = 27.36 s  ClockTime = 27 s

Time = 0.99375

Courant Number mean: 0.0510745 max: 0.152876
smoothSolver:  Solving for Ux, Initial residual = 0.000136586, Final residual = 1.15616e-07, No Iterations 1
smoothSolver:  Solving for Uy, Initial residual = 0.000367777, Final residual = 2.9348e-07, No Iterations 1
DICPCG:  Solving for p, Initial residual = 0.00049991, Final residual = 2.31808e-05, No Iterations 7
time step continuity errors : sum local = 9.90953e-11, global = -1.9079e-22, cumulative = -7.12016e-16
DICPCG:  Solving for p, Initial residual = 2.91016e-05, Final residual = 7.51321e-07, No Iterations 85
time step continuity errors : sum local = 3.11248e-12, global = -3.05244e-19, cumulative = -7.12322e-16
ExecutionTime = 27.36 s  ClockTime = 27 s

Time = 0.994

Courant Number mean: 0.0510748 max: 0.152878
smoothSolver:  Solving for Ux, Initial residual = 0.000136559, Final residual = 1.15585e-07, No Iterations 1
smoothSolver:  Solving for Uy, Initial residual = 0.000367686, Final residual = 2.93271e-07, No Iterations 1
DICPCG:  Solving for p, Initial residual = 0.000499709, Final residual = 2.29892e-05, No Iterations 7
time step continuity errors : sum local = 9.96225e-11, global = 4.05995e-20, cumulative = -7.12281e-16
DICPCG:  Solving for p, Initial residual = 2.88964e-05, Final residual = 9.84841e-07, No Iterations 52
time step continuity errors : sum local = 4.55842e-12, global = -3.87005e-19, cumulative = -7.12668e-16
ExecutionTime = 27.37 s  ClockTime = 27 s

Time = 0.99425

Courant Number mean: 0.051075 max: 0.152881
smoothSolver:  Solving for Ux, Initial residual = 0.000136537, Final residual = 1.15572e-07, No Iterations 1
smoothSolver:  Solving for Uy, Initial residual = 0.000367545, Final residual = 2.93044e-07, No Iterations 1
DICPCG:  Solving for p, Initial residual = 0.000499358, Final residual = 2.32037e-05, No Iterations 7
time step continuity errors : sum local = 9.91405e-11, global = 1.39274e-19, cumulative = -7.12529e-16
DICPCG:  Solving for p, Initial residual = 2.90749e-05, Final residual = 7.90624e-07, No Iterations 85
time step continuity errors : sum local = 3.2766e-12, global = -4.32284e-19, cumulative = -7.12961e-16
ExecutionTime = 27.38 s  ClockTime = 27 s

Time = 0.9945

Courant Number mean: 0.0510753 max: 0.152883
smoothSolver:  Solving for Ux, Initial residual = 0.000136509, Final residual = 1.15536e-07, No Iterations 1
smoothSolver:  Solving for Uy, Initial residual = 0.000367449, Final residual = 2.92839e-07, No Iterations 1
DICPCG:  Solving for p, Initial residual = 0.000499093, Final residual = 2.30556e-05, No Iterations 7
time step continuity errors : sum local = 9.99254e-11, global = 1.52355e-19, cumulative = -7.12809e-16
DICPCG:  Solving for p, Initial residual = 2.89431e-05, Final residual = 9.97778e-07, No Iterations 52
time step continuity errors : sum local = 4.66218e-12, global = -3.12498e-19, cumulative = -7.13121e-16
ExecutionTime = 27.38 s  ClockTime = 27 s

Time = 0.99475

Courant Number mean: 0.0510756 max: 0.152885
smoothSolver:  Solving for Ux, Initial residual = 0.000136489, Final residual = 1.15523e-07, No Iterations 1
smoothSolver:  Solving for Uy, Initial residual = 0.00036731, Final residual = 2.92617e-07, No Iterations 1
DICPCG:  Solving for p, Initial residual = 0.000498829, Final residual = 2.31348e-05, No Iterations 7
time step continuity errors : sum local = 9.87684e-11, global = -1.0966e-19, cumulative = -7.13231e-16
DICPCG:  Solving for p, Initial residual = 2.8983e-05, Final residual = 8.24032e-07, No Iterations 85
time step continuity errors : sum local = 3.41619e-12, global = -2.19879e-19, cumulative = -7.13451e-16
ExecutionTime = 27.39 s  ClockTime = 27 s

Time = 0.995

Courant Number mean: 0.0510759 max: 0.152888
smoothSolver:  Solving for Ux, Initial residual = 0.000136462, Final residual = 1.15484e-07, No Iterations 1
smoothSolver:  Solving for Uy, Initial residual = 0.000367217, Final residual = 2.92414e-07, No Iterations 1
DICPCG:  Solving for p, Initial residual = 0.000498699, Final residual = 2.30536e-05, No Iterations 7
time step continuity errors : sum local = 9.99624e-11, global = -2.85954e-19, cumulative = -7.13737e-16
DICPCG:  Solving for p, Initial residual = 2.89094e-05, Final residual = 9.42824e-07, No Iterations 53
time step continuity errors : sum local = 4.46953e-12, global = -3.99768e-20, cumulative = -7.13777e-16
ExecutionTime = 27.39 s  ClockTime = 27 s

Time = 0.99525

Courant Number mean: 0.0510762 max: 0.15289
smoothSolver:  Solving for Ux, Initial residual = 0.000136445, Final residual = 1.1547e-07, No Iterations 1
smoothSolver:  Solving for Uy, Initial residual = 0.000367077, Final residual = 2.9219e-07, No Iterations 1
DICPCG:  Solving for p, Initial residual = 0.000498455, Final residual = 2.3144e-05, No Iterations 7
time step continuity errors : sum local = 9.87322e-11, global = -4.66123e-19, cumulative = -7.14243e-16
DICPCG:  Solving for p, Initial residual = 2.89598e-05, Final residual = 8.50412e-07, No Iterations 85
time step continuity errors : sum local = 3.5262e-12, global = -2.82439e-19, cumulative = -7.14525e-16
ExecutionTime = 27.4 s  ClockTime = 27 s

Time = 0.9955

Courant Number mean: 0.0510764 max: 0.152892
smoothSolver:  Solving for Ux, Initial residual = 0.000136419, Final residual = 1.15426e-07, No Iterations 1
smoothSolver:  Solving for Uy, Initial residual = 0.000366986, Final residual = 2.9198e-07, No Iterations 1
DICPCG:  Solving for p, Initial residual = 0.00049824, Final residual = 2.30128e-05, No Iterations 7
time step continuity errors : sum local = 9.98305e-11, global = -1.78247e-19, cumulative = -7.14703e-16
DICPCG:  Solving for p, Initial residual = 2.88337e-05, Final residual = 9.98086e-07, No Iterations 52
time step continuity errors : sum local = 4.7429e-12, global = -7.98092e-19, cumulative = -7.15502e-16
ExecutionTime = 27.4 s  ClockTime = 27 s

Time = 0.99575

Courant Number mean: 0.0510767 max: 0.152895
smoothSolver:  Solving for Ux, Initial residual = 0.000136403, Final residual = 1.1541e-07, No Iterations 1
smoothSolver:  Solving for Uy, Initial residual = 0.000366843, Final residual = 2.9175e-07, No Iterations 1
DICPCG:  Solving for p, Initial residual = 0.00049782, Final residual = 2.32212e-05, No Iterations 7
time step continuity errors : sum local = 9.89707e-11, global = -5.43451e-21, cumulative = -7.15507e-16
DICPCG:  Solving for p, Initial residual = 2.90041e-05, Final residual = 8.9225e-07, No Iterations 85
time step continuity errors : sum local = 3.70051e-12, global = 1.18196e-19, cumulative = -7.15389e-16
ExecutionTime = 27.41 s  ClockTime = 27 s

Time = 0.996

Courant Number mean: 0.051077 max: 0.152897
smoothSolver:  Solving for Ux, Initial residual = 0.000136376, Final residual = 1.15362e-07, No Iterations 1
smoothSolver:  Solving for Uy, Initial residual = 0.000366756, Final residual = 2.91542e-07, No Iterations 1
DICPCG:  Solving for p, Initial residual = 0.000497617, Final residual = 2.30775e-05, No Iterations 7
time step continuity errors : sum local = 1.00138e-10, global = 8.08607e-20, cumulative = -7.15308e-16
DICPCG:  Solving for p, Initial residual = 2.88808e-05, Final residual = 9.65322e-07, No Iterations 53
time step continuity errors : sum local = 4.64107e-12, global = -3.11292e-19, cumulative = -7.15619e-16
ExecutionTime = 27.41 s  ClockTime = 27 s

Time = 0.99625

Courant Number mean: 0.0510773 max: 0.152899
smoothSolver:  Solving for Ux, Initial residual = 0.00013636, Final residual = 1.15345e-07, No Iterations 1
smoothSolver:  Solving for Uy, Initial residual = 0.000366613, Final residual = 2.91313e-07, No Iterations 1
DICPCG:  Solving for p, Initial residual = 0.000497291, Final residual = 2.31427e-05, No Iterations 7
time step continuity errors : sum local = 9.85734e-11, global = 1.81204e-19, cumulative = -7.15438e-16
DICPCG:  Solving for p, Initial residual = 2.89174e-05, Final residual = 9.11089e-07, No Iterations 85
time step continuity errors : sum local = 3.77884e-12, global = -8.43508e-20, cumulative = -7.15522e-16
ExecutionTime = 27.42 s  ClockTime = 27 s

Time = 0.9965

Courant Number mean: 0.0510775 max: 0.152902
smoothSolver:  Solving for Ux, Initial residual = 0.000136332, Final residual = 1.15292e-07, No Iterations 1
smoothSolver:  Solving for Uy, Initial residual = 0.000366524, Final residual = 2.91103e-07, No Iterations 1
DICPCG:  Solving for p, Initial residual = 0.000496992, Final residual = 2.30349e-05, No Iterations 7
time step continuity errors : sum local = 9.9993e-11, global = -8.89173e-20, cumulative = -7.15611e-16
DICPCG:  Solving for p, Initial residual = 2.88033e-05, Final residual = 9.78977e-07, No Iterations 53
time step continuity errors : sum local = 4.74233e-12, global = -2.41304e-20, cumulative = -7.15635e-16
ExecutionTime = 27.42 s  ClockTime = 27 s

Time = 0.99675

Courant Number mean: 0.0510778 max: 0.152904
smoothSolver:  Solving for Ux, Initial residual = 0.000136318, Final residual = 1.15272e-07, No Iterations 1
smoothSolver:  Solving for Uy, Initial residual = 0.000366376, Final residual = 2.90871e-07, No Iterations 1
DICPCG:  Solving for p, Initial residual = 0.000496547, Final residual = 2.31965e-05, No Iterations 7
time step continuity errors : sum local = 9.87106e-11, global = 1.62774e-19, cumulative = -7.15473e-16
DICPCG:  Solving for p, Initial residual = 2.89447e-05, Final residual = 9.36088e-07, No Iterations 85
time step continuity errors : sum local = 3.8828e-12, global = -2.54858e-20, cumulative = -7.15498e-16
ExecutionTime = 27.43 s  ClockTime = 27 s

Time = 0.997

Courant Number mean: 0.0510781 max: 0.152906
smoothSolver:  Solving for Ux, Initial residual = 0.000136289, Final residual = 1.15214e-07, No Iterations 1
smoothSolver:  Solving for Uy, Initial residual = 0.000366291, Final residual = 2.90663e-07, No Iterations 1
DICPCG:  Solving for p, Initial residual = 0.000496073, Final residual = 2.31105e-05, No Iterations 7
time step continuity errors : sum local = 1.00343e-10, global = -1.61111e-19, cumulative = -7.15659e-16
DICPCG:  Solving for p, Initial residual = 2.88362e-05, Final residual = 9.92139e-07, No Iterations 53
time step continuity errors : sum local = 4.82916e-12, global = -1.26667e-19, cumulative = -7.15786e-16
ExecutionTime = 27.44 s  ClockTime = 27 s

Time = 0.99725

Courant Number mean: 0.0510784 max: 0.152909
smoothSolver:  Solving for Ux, Initial residual = 0.000136276, Final residual = 1.15193e-07, No Iterations 1
smoothSolver:  Solving for Uy, Initial residual = 0.000366144, Final residual = 2.90436e-07, No Iterations 1
DICPCG:  Solving for p, Initial residual = 0.000495453, Final residual = 2.32034e-05, No Iterations 7
time step continuity errors : sum local = 9.86734e-11, global = -3.63985e-19, cumulative = -7.1615e-16
DICPCG:  Solving for p, Initial residual = 2.89139e-05, Final residual = 9.61284e-07, No Iterations 85
time step continuity errors : sum local = 3.98745e-12, global = -1.49749e-19, cumulative = -7.163e-16
ExecutionTime = 27.44 s  ClockTime = 27 s

Time = 0.9975

Courant Number mean: 0.0510787 max: 0.152911
smoothSolver:  Solving for Ux, Initial residual = 0.000136246, Final residual = 1.15131e-07, No Iterations 1
smoothSolver:  Solving for Uy, Initial residual = 0.000366063, Final residual = 2.90231e-07, No Iterations 1
DICPCG:  Solving for p, Initial residual = 0.000494899, Final residual = 2.31366e-05, No Iterations 7
time step continuity errors : sum local = 1.00478e-10, global = -2.38103e-19, cumulative = -7.16538e-16
DICPCG:  Solving for p, Initial residual = 2.88261e-05, Final residual = 7.89871e-07, No Iterations 86
time step continuity errors : sum local = 3.27111e-12, global = -1.05519e-19, cumulative = -7.16643e-16
ExecutionTime = 27.45 s  ClockTime = 27 s

Time = 0.99775

Courant Number mean: 0.0510789 max: 0.152913
smoothSolver:  Solving for Ux, Initial residual = 0.00013623, Final residual = 1.15098e-07, No Iterations 1
smoothSolver:  Solving for Uy, Initial residual = 0.000365932, Final residual = 2.90005e-07, No Iterations 1
DICPCG:  Solving for p, Initial residual = 0.000494144, Final residual = 2.31375e-05, No Iterations 7
time step continuity errors : sum local = 9.97989e-11, global = 2.48506e-19, cumulative = -7.16395e-16
DICPCG:  Solving for p, Initial residual = 2.88025e-05, Final residual = 7.91038e-07, No Iterations 86
time step continuity errors : sum local = 3.27715e-12, global = -2.67423e-19, cumulative = -7.16662e-16
ExecutionTime = 27.45 s  ClockTime = 27 s

Time = 0.998

Courant Number mean: 0.0510792 max: 0.152916
smoothSolver:  Solving for Ux, Initial residual = 0.000136209, Final residual = 1.15054e-07, No Iterations 1
smoothSolver:  Solving for Uy, Initial residual = 0.00036582, Final residual = 2.89789e-07, No Iterations 1
DICPCG:  Solving for p, Initial residual = 0.000493702, Final residual = 2.31984e-05, No Iterations 7
time step continuity errors : sum local = 1.00066e-10, global = -3.46913e-19, cumulative = -7.17009e-16
DICPCG:  Solving for p, Initial residual = 2.88308e-05, Final residual = 7.98361e-07, No Iterations 86
time step continuity errors : sum local = 3.3072e-12, global = -3.64382e-19, cumulative = -7.17373e-16
ExecutionTime = 27.46 s  ClockTime = 27 s

Time = 0.99825

Courant Number mean: 0.0510795 max: 0.152918
smoothSolver:  Solving for Ux, Initial residual = 0.000136187, Final residual = 1.15009e-07, No Iterations 1
smoothSolver:  Solving for Uy, Initial residual = 0.000365706, Final residual = 2.89566e-07, No Iterations 1
DICPCG:  Solving for p, Initial residual = 0.000493255, Final residual = 2.31993e-05, No Iterations 7
time step continuity errors : sum local = 1.00062e-10, global = -8.07723e-20, cumulative = -7.17454e-16
DICPCG:  Solving for p, Initial residual = 2.88146e-05, Final residual = 8.05634e-07, No Iterations 86
time step continuity errors : sum local = 3.33714e-12, global = 4.01631e-19, cumulative = -7.17053e-16
ExecutionTime = 27.47 s  ClockTime = 27 s

Time = 0.9985

Courant Number mean: 0.0510798 max: 0.15292
smoothSolver:  Solving for Ux, Initial residual = 0.000136166, Final residual = 1.14962e-07, No Iterations 1
smoothSolver:  Solving for Uy, Initial residual = 0.000365593, Final residual = 2.89345e-07, No Iterations 1
DICPCG:  Solving for p, Initial residual = 0.000492897, Final residual = 2.32325e-05, No Iterations 7
time step continuity errors : sum local = 1.00197e-10, global = 2.37982e-19, cumulative = -7.16815e-16
DICPCG:  Solving for p, Initial residual = 2.8823e-05, Final residual = 8.07327e-07, No Iterations 86
time step continuity errors : sum local = 3.34404e-12, global = -1.85688e-19, cumulative = -7.17e-16
ExecutionTime = 27.47 s  ClockTime = 27 s

Time = 0.99875

Courant Number mean: 0.05108 max: 0.152923
smoothSolver:  Solving for Ux, Initial residual = 0.000136147, Final residual = 1.14914e-07, No Iterations 1
smoothSolver:  Solving for Uy, Initial residual = 0.000365479, Final residual = 2.89126e-07, No Iterations 1
DICPCG:  Solving for p, Initial residual = 0.00049255, Final residual = 2.32575e-05, No Iterations 7
time step continuity errors : sum local = 1.00298e-10, global = -8.28169e-20, cumulative = -7.17083e-16
DICPCG:  Solving for p, Initial residual = 2.88312e-05, Final residual = 8.11328e-07, No Iterations 86
time step continuity errors : sum local = 3.36045e-12, global = 1.66542e-19, cumulative = -7.16917e-16
ExecutionTime = 27.48 s  ClockTime = 27 s

Time = 0.999

Courant Number mean: 0.0510803 max: 0.152925
smoothSolver:  Solving for Ux, Initial residual = 0.000136129, Final residual = 1.14866e-07, No Iterations 1
smoothSolver:  Solving for Uy, Initial residual = 0.000365365, Final residual = 2.88905e-07, No Iterations 1
DICPCG:  Solving for p, Initial residual = 0.000492207, Final residual = 2.3292e-05, No Iterations 7
time step continuity errors : sum local = 1.00439e-10, global = 4.49853e-19, cumulative = -7.16467e-16
DICPCG:  Solving for p, Initial residual = 2.8842e-05, Final residual = 8.13331e-07, No Iterations 86
time step continuity errors : sum local = 3.36859e-12, global = -4.59887e-21, cumulative = -7.16471e-16
ExecutionTime = 27.49 s  ClockTime = 27 s

Time = 0.99925

Courant Number mean: 0.0510806 max: 0.152927
smoothSolver:  Solving for Ux, Initial residual = 0.000136112, Final residual = 1.14816e-07, No Iterations 1
smoothSolver:  Solving for Uy, Initial residual = 0.000365255, Final residual = 2.88684e-07, No Iterations 1
DICPCG:  Solving for p, Initial residual = 0.000491846, Final residual = 2.33234e-05, No Iterations 7
time step continuity errors : sum local = 1.00566e-10, global = -4.33522e-20, cumulative = -7.16515e-16
DICPCG:  Solving for p, Initial residual = 2.88475e-05, Final residual = 8.15927e-07, No Iterations 86
time step continuity errors : sum local = 3.37917e-12, global = 1.48821e-19, cumulative = -7.16366e-16
ExecutionTime = 27.49 s  ClockTime = 27 s

Time = 0.9995

Courant Number mean: 0.0510809 max: 0.15293
smoothSolver:  Solving for Ux, Initial residual = 0.000136094, Final residual = 1.14766e-07, No Iterations 1
smoothSolver:  Solving for Uy, Initial residual = 0.000365146, Final residual = 2.88464e-07, No Iterations 1
DICPCG:  Solving for p, Initial residual = 0.000491512, Final residual = 2.33582e-05, No Iterations 7
time step continuity errors : sum local = 1.00707e-10, global = -1.64664e-19, cumulative = -7.16531e-16
DICPCG:  Solving for p, Initial residual = 2.88572e-05, Final residual = 8.17822e-07, No Iterations 86
time step continuity errors : sum local = 3.38685e-12, global = -1.83959e-19, cumulative = -7.16715e-16
ExecutionTime = 27.5 s  ClockTime = 27 s

Time = 0.99975

Courant Number mean: 0.0510812 max: 0.152932
smoothSolver:  Solving for Ux, Initial residual = 0.000136077, Final residual = 1.14715e-07, No Iterations 1
smoothSolver:  Solving for Uy, Initial residual = 0.000365033, Final residual = 2.8824e-07, No Iterations 1
DICPCG:  Solving for p, Initial residual = 0.000491146, Final residual = 2.33934e-05, No Iterations 7
time step continuity errors : sum local = 1.0085e-10, global = 6.47358e-20, cumulative = -7.1665e-16
DICPCG:  Solving for p, Initial residual = 2.88669e-05, Final residual = 8.19666e-07, No Iterations 86
time step continuity errors : sum local = 3.3943e-12, global = -3.3506e-19, cumulative = -7.16985e-16
ExecutionTime = 27.51 s  ClockTime = 27 s

Time = 1

Courant Number mean: 0.0510814 max: 0.152934
smoothSolver:  Solving for Ux, Initial residual = 0.00013606, Final residual = 1.14664e-07, No Iterations 1
smoothSolver:  Solving for Uy, Initial residual = 0.000364919, Final residual = 2.88011e-07, No Iterations 1
DICPCG:  Solving for p, Initial residual = 0.000490747, Final residual = 2.34285e-05, No Iterations 7
time step continuity errors : sum local = 1.00992e-10, global = -3.78583e-19, cumulative = -7.17363e-16
DICPCG:  Solving for p, Initial residual = 2.88825e-05, Final residual = 8.2123e-07, No Iterations 86
time step continuity errors : sum local = 3.4006e-12, global = 3.65518e-19, cumulative = -7.16998e-16
ExecutionTime = 27.52 s  ClockTime = 27 s

End

